CemigDFeeders/COJ08/COJ08SegmentosMT.dss
new line.TR12119365 bus1=BMT1527420B.2,bus2=BMT8711926B.2,Phases=1,Linecode=CAB102_3_1,Length=0.021550000,Units=km
new line.TR12119366 bus1=BMT8711926B.2,bus2=BMT148644783.2,Phases=1,Linecode=CAB102_3_1,Length=0.028660000,Units=km
new line.TR12458226 bus1=BMT1532894B.1,bus2=BMT9066737B.1,Phases=1,Linecode=CAB102_3_1,Length=0.018360000,Units=km
new line.TR12458227 bus1=BMT9066737B.1,bus2=BMT160540338.1,Phases=1,Linecode=CAB102_3_1,Length=0.016130000,Units=km
new line.TR12458826 bus1=BMT167293350.2,bus2=BMT167293353.2,Phases=1,Linecode=CABA06_3_1,Length=0.045620000,Units=km
new line.TR12509840 bus1=BMT163588414.1.2.3,bus2=BMT5453832B.1.2.3,Phases=3,Linecode=CABA06_3_3,Length=0.034540000,Units=km
new line.TR12509852 bus1=BMT5453832B.1.2.3,bus2=BMT5453839B.1.2.3,Phases=3,Linecode=CABA06_3_3,Length=0.043430000,Units=km
new line.TR12509873 bus1=BMT5453839B.1.2.3,bus2=BMT5453846B.1.2.3,Phases=3,Linecode=CABA06_3_3,Length=0.042590000,Units=km
new line.TR12509889 bus1=BMT5453846B.1.2.3,bus2=BMT8669793B.1.2.3,Phases=3,Linecode=CABA06_3_3,Length=0.033630000,Units=km
new line.TR12509890 bus1=BMT8669793B.1.2.3,bus2=BMT9118657B.1.2.3,Phases=3,Linecode=CABA06_3_3,Length=0.026940000,Units=km
new line.TR12509891 bus1=BMT9118657B.1.2.3,bus2=BMT9118662B.1.2.3,Phases=3,Linecode=CABA06_3_3,Length=0.026010000,Units=km
new line.TR12509892 bus1=BMT9118662B.1.2.3,bus2=BMT163588415.1.2.3,Phases=3,Linecode=CABA06_3_3,Length=0.036260000,Units=km
new line.TR12510352 bus1=BMT169999719.1,bus2=BMT9118969B.1,Phases=1,Linecode=CABA06_3_1,Length=0.031410000,Units=km
new line.TR12510353 bus1=BMT9118969B.1,bus2=BMT9118971B.1,Phases=1,Linecode=CABA06_3_1,Length=0.030820000,Units=km
new line.TR12510356 bus1=BMT9118971B.1,bus2=BMT9118978B.1,Phases=1,Linecode=CABA06_3_1,Length=0.035710000,Units=km
new line.TR12510359 bus1=BMT9118978B.1,bus2=BMT5117293B.1,Phases=1,Linecode=CABA06_3_1,Length=0.034940000,Units=km
new line.TR12510369 bus1=BMT5117293B.1,bus2=BMT9118986B.1,Phases=1,Linecode=CABA06_3_1,Length=0.031590000,Units=km
new line.TR12510372 bus1=BMT9118986B.1,bus2=BMT7857289B.1,Phases=1,Linecode=CABA06_3_1,Length=0.030610000,Units=km
new line.TR12510373 bus1=BMT7857289B.1,bus2=BMT7857310B.1,Phases=1,Linecode=CABA06_3_1,Length=0.025500000,Units=km
new line.TR12510388 bus1=BMT7857310B.1,bus2=BMT162888960.1,Phases=1,Linecode=CABA06_3_1,Length=0.027470000,Units=km
new line.TR12510396 bus1=BMT169999720.1,bus2=BMT169999721.1,Phases=1,Linecode=CABA06_3_1,Length=0.051020000,Units=km
new line.TR2979500 bus1=BMT3891684B.1.2.3,bus2=BMT121196492.1.2.3,Phases=3,Linecode=CABA06_3_3,Length=0.044570000,Units=km
new line.TR3412863 bus1=BMT4417132B.2,bus2=BMT121197773.2,Phases=1,Linecode=CAB202_3_1,Length=0.129660000,Units=km
new line.TR3412870 bus1=BMT131818173.2,bus2=BMT3259899B.2,Phases=1,Linecode=CAB202_3_1,Length=0.135640000,Units=km
new line.TR3412877 bus1=BMT121197773.2,bus2=BMT121197780.2,Phases=1,Linecode=CAB202_3_1,Length=0.120460000,Units=km
new line.TR3412884 bus1=BMT121197780.2,bus2=BMT4417153B.2,Phases=1,Linecode=CAB202_3_1,Length=0.128060000,Units=km
new line.TR3412891 bus1=BMT169601352.2,bus2=BMT4417293B.2,Phases=1,Linecode=CAB202_3_1,Length=0.100440000,Units=km
new line.TR3412898 bus1=BMT4417153B.2,bus2=BMT160084995.2,Phases=1,Linecode=CAB202_3_1,Length=0.114650000,Units=km
new line.TR3412905 bus1=BMT160084995.2,bus2=BMT121197794.2,Phases=1,Linecode=CAB202_3_1,Length=0.112750000,Units=km
new line.TR3412912 bus1=BMT121197794.2,bus2=BMT4417174B.2,Phases=1,Linecode=CAB202_3_1,Length=0.125340000,Units=km
new line.TR3412919 bus1=BMT160252778.2,bus2=BMT4417356B.2,Phases=1,Linecode=CAB202_3_1,Length=0.055380000,Units=km
new line.TR3412926 bus1=BMT4417174B.2,bus2=BMT4417181B.2,Phases=1,Linecode=CAB202_3_1,Length=0.115420000,Units=km
new line.TR3412933 bus1=BMT4417181B.2,bus2=BMT4417188B.2,Phases=1,Linecode=CAB202_3_1,Length=0.095310000,Units=km
new line.TR3412940 bus1=BMT4417188B.2,bus2=BMT4417195B.2,Phases=1,Linecode=CAB202_3_1,Length=0.151700000,Units=km
new line.TR3412947 bus1=BMT4417195B.2,bus2=BMT121197801.2,Phases=1,Linecode=CAB202_3_1,Length=0.175350000,Units=km
new line.TR3412954 bus1=BMT121197801.2,bus2=BMT121197808.2,Phases=1,Linecode=CAB202_3_1,Length=0.038090000,Units=km
new line.TR3412961 bus1=BMT121198046.2,bus2=BMT121198053.2,Phases=1,Linecode=CAB202_3_1,Length=0.230570000,Units=km
new line.TR3412968 bus1=BMT121197808.2,bus2=BMT160084996.2,Phases=1,Linecode=CAB202_3_1,Length=0.094280000,Units=km
new line.TR3412975 bus1=BMT121197927.2,bus2=BMT4417468B.2,Phases=1,Linecode=CAB202_3_1,Length=0.083700000,Units=km
new line.TR3412982 bus1=BMT160084996.2,bus2=BMT160084997.2,Phases=1,Linecode=CAB202_3_1,Length=0.116150000,Units=km
new line.TR3412989 bus1=BMT160084997.2,bus2=BMT4417230B.2,Phases=1,Linecode=CAB202_3_1,Length=0.166410000,Units=km
new line.TR3412996 bus1=BMT4417230B.2,bus2=BMT160084998.2,Phases=1,Linecode=CAB202_3_1,Length=0.112640000,Units=km
new line.TR3413003 bus1=BMT160084998.2,bus2=BMT4417244B.2,Phases=1,Linecode=CAB202_3_1,Length=0.071870000,Units=km
new line.TR3413010 bus1=BMT160084998.2,bus2=BMT160085000.2,Phases=1,Linecode=CAB103_3_1,Length=0.043060000,Units=km
new line.TR3413017 bus1=BMT4417244B.2,bus2=BMT4417251B.2,Phases=1,Linecode=CAB202_3_1,Length=0.179070000,Units=km
new line.TR3413024 bus1=BMT4417251B.2,bus2=BMT4417258B.2,Phases=1,Linecode=CAB202_3_1,Length=0.119240000,Units=km
new line.TR3413031 bus1=BMT4417258B.2,bus2=BMT160084999.2,Phases=1,Linecode=CAB202_3_1,Length=0.127310000,Units=km
new line.TR3413038 bus1=BMT160084999.2,bus2=BMT160085001.2,Phases=1,Linecode=CAB202_3_1,Length=0.108120000,Units=km
new line.TR3413045 bus1=BMT160085001.2,bus2=BMT121197850.2,Phases=1,Linecode=CAB202_3_1,Length=0.105660000,Units=km
new line.TR3413052 bus1=BMT121197850.2,bus2=BMT160085003.2,Phases=1,Linecode=CAB202_3_1,Length=0.100280000,Units=km
new line.TR3413059 bus1=BMT121197864.2,bus2=BMT4417804B.2,Phases=1,Linecode=CAB202_3_1,Length=0.153640000,Units=km
new line.TR3413066 bus1=BMT4417293B.2,bus2=BMT169601353.2,Phases=1,Linecode=CAB202_3_1,Length=0.175130000,Units=km
new line.TR3413080 bus1=BMT169601353.2,bus2=BMT4417307B.2,Phases=1,Linecode=CAB202_3_1,Length=0.130220000,Units=km
new line.TR3413087 bus1=BMT4417307B.2,bus2=BMT4417314B.2,Phases=1,Linecode=CAB202_3_1,Length=0.145770000,Units=km
new line.TR3413094 bus1=BMT4417314B.2,bus2=BMT4417321B.2,Phases=1,Linecode=CAB202_3_1,Length=0.119370000,Units=km
new line.TR3413101 bus1=BMT4417321B.2,bus2=BMT4417328B.2,Phases=1,Linecode=CAB202_3_1,Length=0.103440000,Units=km
new line.TR3413108 bus1=BMT4417328B.2,bus2=BMT4417335B.2,Phases=1,Linecode=CAB202_3_1,Length=0.105840000,Units=km
new line.TR3413115 bus1=BMT4417335B.2,bus2=BMT169601354.2,Phases=1,Linecode=CAB202_3_1,Length=0.044790000,Units=km
new line.TR3413122 bus1=BMT4417342B.2,bus2=BMT169601356.2,Phases=1,Linecode=CAB202_3_1,Length=0.051990000,Units=km
new line.TR3413129 bus1=BMT4417356B.2,bus2=BMT160252779.2,Phases=1,Linecode=CAB202_3_1,Length=0.199320000,Units=km
new line.TR3413136 bus1=BMT160252779.2,bus2=BMT4417370B.2,Phases=1,Linecode=CAB202_3_1,Length=0.080310000,Units=km
new line.TR3413143 bus1=BMT4417370B.2,bus2=BMT160252780.2,Phases=1,Linecode=CAB202_3_1,Length=0.113740000,Units=km
new line.TR3413150 bus1=BMT160252780.2,bus2=BMT4417384B.2,Phases=1,Linecode=CAB202_3_1,Length=0.139660000,Units=km
new line.TR3413157 bus1=BMT160252780.2,bus2=BMT160252783.2,Phases=1,Linecode=CAB103_3_1,Length=0.019030000,Units=km
new line.TR3413164 bus1=BMT4417384B.2,bus2=BMT4417391B.2,Phases=1,Linecode=CAB202_3_1,Length=0.149910000,Units=km
new line.TR3413171 bus1=BMT4417391B.2,bus2=BMT4417398B.2,Phases=1,Linecode=CAB202_3_1,Length=0.078940000,Units=km
new line.TR3413178 bus1=BMT4417398B.2,bus2=BMT4417405B.2,Phases=1,Linecode=CAB202_3_1,Length=0.067210000,Units=km
new line.TR3413185 bus1=BMT4417405B.2,bus2=BMT160252782.2,Phases=1,Linecode=CAB202_3_1,Length=0.110420000,Units=km
new line.TR3413192 bus1=BMT160252782.2,bus2=BMT160252784.2,Phases=1,Linecode=CAB202_3_1,Length=0.054360000,Units=km
new line.TR3413199 bus1=BMT121198053.2,bus2=BMT4417440B.2,Phases=1,Linecode=CAB202_3_1,Length=0.085310000,Units=km
new line.TR3413206 bus1=BMT121198053.2,bus2=BMT121198067.2,Phases=1,Linecode=CAB103_3_1,Length=0.073950000,Units=km
new line.TR3413213 bus1=BMT4417440B.2,bus2=BMT4417447B.2,Phases=1,Linecode=CAB202_3_1,Length=0.198020000,Units=km
new line.TR3413220 bus1=BMT4417447B.2,bus2=BMT121198060.2,Phases=1,Linecode=CAB202_3_1,Length=0.101080000,Units=km
new line.TR3413227 bus1=BMT4417468B.2,bus2=BMT4417475B.2,Phases=1,Linecode=CAB202_3_1,Length=0.072210000,Units=km
new line.TR3413234 bus1=BMT4417475B.2,bus2=BMT121197934.2,Phases=1,Linecode=CAB202_3_1,Length=0.077650000,Units=km
new line.TR3413241 bus1=BMT121197934.2,bus2=BMT4417489B.2,Phases=1,Linecode=CAB202_3_1,Length=0.142660000,Units=km
new line.TR3413248 bus1=BMT121197934.2,bus2=BMT121197948.2,Phases=1,Linecode=CAB103_3_1,Length=0.039940000,Units=km
new line.TR3413255 bus1=BMT4417489B.2,bus2=BMT121197941.2,Phases=1,Linecode=CAB202_3_1,Length=0.101570000,Units=km
new line.TR3413262 bus1=BMT121197941.2,bus2=BMT4417503B.2,Phases=1,Linecode=CAB202_3_1,Length=0.249680000,Units=km
new line.TR3413269 bus1=BMT121197941.2,bus2=BMT121197962.2,Phases=1,Linecode=CAB103_3_1,Length=0.012810000,Units=km
new line.TR3413276 bus1=BMT4417503B.2,bus2=BMT121197955.2,Phases=1,Linecode=CAB202_3_1,Length=0.152060000,Units=km
new line.TR3413283 bus1=BMT121197955.2,bus2=BMT121197969.2,Phases=1,Linecode=CAB202_3_1,Length=0.230280000,Units=km
new line.TR3413290 bus1=BMT121197955.2,bus2=BMT121197976.2,Phases=1,Linecode=CAB103_3_1,Length=0.010630000,Units=km
new line.TR3413297 bus1=BMT121197969.2,bus2=BMT121197983.2,Phases=1,Linecode=CAB202_3_1,Length=0.167470000,Units=km
new line.TR3413304 bus1=BMT121197969.2,bus2=BMT4417748B.2,Phases=1,Linecode=CAB103_3_1,Length=0.076950000,Units=km
new line.TR3413311 bus1=BMT121197983.2,bus2=BMT4417531B.2,Phases=1,Linecode=CAB202_3_1,Length=0.367370000,Units=km
new line.TR3413318 bus1=BMT121197983.2,bus2=BMT121198004.2,Phases=1,Linecode=CAB103_3_1,Length=0.043190000,Units=km
new line.TR3413325 bus1=BMT4417531B.2,bus2=BMT4417538B.2,Phases=1,Linecode=CAB202_3_1,Length=0.093970000,Units=km
new line.TR3413332 bus1=BMT4417538B.2,bus2=BMT4417545B.2,Phases=1,Linecode=CAB202_3_1,Length=0.154170000,Units=km
new line.TR3413339 bus1=BMT4417545B.2,bus2=BMT4417552B.2,Phases=1,Linecode=CAB202_3_1,Length=0.148010000,Units=km
new line.TR3413346 bus1=BMT4417552B.2,bus2=BMT4417559B.2,Phases=1,Linecode=CAB202_3_1,Length=0.142770000,Units=km
new line.TR3413353 bus1=BMT4417559B.2,bus2=BMT121197997.2,Phases=1,Linecode=CAB202_3_1,Length=0.198280000,Units=km
new line.TR3413360 bus1=BMT121197997.2,bus2=BMT4417573B.2,Phases=1,Linecode=CAB202_3_1,Length=0.022480000,Units=km
new line.TR3413367 bus1=BMT4417573B.2,bus2=BMT4417580B.2,Phases=1,Linecode=CAB202_3_1,Length=0.197920000,Units=km
new line.TR3413374 bus1=BMT4417580B.2,bus2=BMT4417587B.2,Phases=1,Linecode=CAB202_3_1,Length=0.132560000,Units=km
new line.TR3413381 bus1=BMT4417587B.2,bus2=BMT4417594B.2,Phases=1,Linecode=CAB202_3_1,Length=0.067630000,Units=km
new line.TR3413388 bus1=BMT4417594B.2,bus2=BMT4417601B.2,Phases=1,Linecode=CAB202_3_1,Length=0.133240000,Units=km
new line.TR3413395 bus1=BMT4417601B.2,bus2=BMT4417608B.2,Phases=1,Linecode=CAB202_3_1,Length=0.122690000,Units=km
new line.TR3413402 bus1=BMT4417608B.2,bus2=BMT4417615B.2,Phases=1,Linecode=CAB202_3_1,Length=0.091700000,Units=km
new line.TR3413409 bus1=BMT4417615B.2,bus2=BMT4417622B.2,Phases=1,Linecode=CAB202_3_1,Length=0.089980000,Units=km
new line.TR3413416 bus1=BMT4417622B.2,bus2=BMT4417629B.2,Phases=1,Linecode=CAB202_3_1,Length=0.049060000,Units=km
new line.TR3413423 bus1=BMT4417629B.2,bus2=BMT4417636B.2,Phases=1,Linecode=CAB202_3_1,Length=0.173090000,Units=km
new line.TR3413430 bus1=BMT4417636B.2,bus2=BMT4417643B.2,Phases=1,Linecode=CAB202_3_1,Length=0.160310000,Units=km
new line.TR3413437 bus1=BMT4417643B.2,bus2=BMT4417650B.2,Phases=1,Linecode=CAB202_3_1,Length=0.105340000,Units=km
new line.TR3413444 bus1=BMT4417650B.2,bus2=BMT4417657B.2,Phases=1,Linecode=CAB202_3_1,Length=0.154070000,Units=km
new line.TR3413451 bus1=BMT4417657B.2,bus2=BMT4417664B.2,Phases=1,Linecode=CAB202_3_1,Length=0.149170000,Units=km
new line.TR3413458 bus1=BMT4417664B.2,bus2=BMT4417671B.2,Phases=1,Linecode=CAB202_3_1,Length=0.139050000,Units=km
new line.TR3413465 bus1=BMT4417671B.2,bus2=BMT4417678B.2,Phases=1,Linecode=CAB202_3_1,Length=0.118050000,Units=km
new line.TR3413472 bus1=BMT4417678B.2,bus2=BMT4417685B.2,Phases=1,Linecode=CAB202_3_1,Length=0.146220000,Units=km
new line.TR3413479 bus1=BMT4417685B.2,bus2=BMT4417692B.2,Phases=1,Linecode=CAB202_3_1,Length=0.135050000,Units=km
new line.TR3413486 bus1=BMT4417692B.2,bus2=BMT4417699B.2,Phases=1,Linecode=CAB202_3_1,Length=0.162060000,Units=km
new line.TR3413493 bus1=BMT4417699B.2,bus2=BMT4417706B.2,Phases=1,Linecode=CAB202_3_1,Length=0.107110000,Units=km
new line.TR3413500 bus1=BMT4417706B.2,bus2=BMT121198011.2,Phases=1,Linecode=CAB202_3_1,Length=0.219260000,Units=km
new line.TR12372705 bus1=BMT1528659B.1,bus2=BMT8978061B.1,Phases=1,Linecode=CABA06_3_1,Length=0.036890000,Units=km
new line.TR12372707 bus1=BMT8978061B.1,bus2=BMT8978062B.1,Phases=1,Linecode=CABA06_3_1,Length=0.037120000,Units=km
new line.TR12372708 bus1=BMT8978062B.1,bus2=BMT1537535B.1,Phases=1,Linecode=CABA06_3_1,Length=0.040280000,Units=km
new line.TR12372709 bus1=BMT169999717.1,bus2=BMT8978063B.1,Phases=1,Linecode=CABA06_3_1,Length=0.044930000,Units=km
new line.TR12372711 bus1=BMT8978063B.1,bus2=BMT8978064B.1,Phases=1,Linecode=CABA06_3_1,Length=0.044930000,Units=km
new line.TR12372712 bus1=BMT8978064B.1,bus2=BMT169999719.1,Phases=1,Linecode=CABA06_3_1,Length=0.042220000,Units=km
new line.TR12479937 bus1=BMT167293347.2,bus2=BMT8771700B.2,Phases=1,Linecode=CABA06_3_1,Length=0.035520000,Units=km
new line.TR12479946 bus1=BMT8771700B.2,bus2=BMT8771701B.2,Phases=1,Linecode=CABA06_3_1,Length=0.034420000,Units=km
new line.TR12479950 bus1=BMT8771701B.2,bus2=BMT9089809B.2,Phases=1,Linecode=CABA06_3_1,Length=0.031920000,Units=km
new line.TR12479953 bus1=BMT9089809B.2,bus2=BMT5298327B.2,Phases=1,Linecode=CABA06_3_1,Length=0.026410000,Units=km
new line.TR12479973 bus1=BMT5298327B.2,bus2=BMT9089826B.2,Phases=1,Linecode=CABA06_3_1,Length=0.031080000,Units=km
new line.TR12479975 bus1=BMT9089826B.2,bus2=BMT167293348.2,Phases=1,Linecode=CABA06_3_1,Length=0.031080000,Units=km
new line.TR12551635 bus1=BMT164632285.2,bus2=BMT9160629B.2,Phases=1,Linecode=CAB103_3_1,Length=0.022810000,Units=km
new line.TR12551636 bus1=BMT9160629B.2,bus2=BMT1536933B.2,Phases=1,Linecode=CAB103_3_1,Length=0.013610000,Units=km
new line.TR12641034 bus1=BMT162756154.1.2.3,bus2=BMT167749520.1.2.3,Phases=3,Linecode=CAB107_3_3,Length=0.012210000,Units=km
new line.TR12641038 bus1=BMT167749520.1.2.3,bus2=BMT167749491.1.2.3,Phases=3,Linecode=CAB107_3_3,Length=0.008610000,Units=km
new line.TR12641047 bus1=BMT167749494.1.2.3,bus2=BMT8247812B.1.2.3,Phases=3,Linecode=CABA06_3_3,Length=0.021480000,Units=km
new line.TR12641048 bus1=BMT8247812B.1.2.3,bus2=BMT162398141.1.2.3,Phases=3,Linecode=CABA06_3_3,Length=0.022210000,Units=km
new line.TR12641066 bus1=BMT167749491.1.2.3,bus2=BMT167749589.1.2.3,Phases=3,Linecode=CAB107_3_3,Length=0.009440000,Units=km
new line.TR2132906 bus1=BMT121196989.1.2.3,bus2=BMT2614877.1.2.3,Phases=3,Linecode=CAB104_3_3,Length=0.014870000,Units=km
new line.TR2132913 bus1=BMT121196989.1.2.3,bus2=BMT121196996.1.2.3,Phases=3,Linecode=CAB104_3_3,Length=0.027520000,Units=km
new line.TR2132920 bus1=BMT121196989.1.2.3,bus2=BMT2782975B.1.2.3,Phases=3,Linecode=CAB104_3_3,Length=0.023780000,Units=km
new line.TR2135034 bus1=BMT2785152B.1.2.3,bus2=BMT121196982.1.2.3,Phases=3,Linecode=CAB104_3_3,Length=0.015010000,Units=km
new line.TR3608667 bus1=BMT169601354.2,bus2=BMT4417342B.2,Phases=1,Linecode=CAB202_3_1,Length=0.051330000,Units=km
new line.TR4966856 bus1=BMT160084991.2,bus2=BMT6152131B.2,Phases=1,Linecode=CAB202_3_1,Length=0.074750000,Units=km
new line.TR4966863 bus1=BMT6152131B.2,bus2=BMT6152145B.2,Phases=1,Linecode=CAB202_3_1,Length=0.123500000,Units=km
new line.TR4966884 bus1=BMT6152145B.2,bus2=BMT160084992.2,Phases=1,Linecode=CAB202_3_1,Length=0.175750000,Units=km
new line.TR4966982 bus1=BMT160084992.2,bus2=BMT6152208B.2,Phases=1,Linecode=CAB202_3_1,Length=0.311300000,Units=km
new line.TR4967038 bus1=BMT6152208B.2,bus2=BMT6152215B.2,Phases=1,Linecode=CAB202_3_1,Length=0.131990000,Units=km
new line.TR4967045 bus1=BMT6152215B.2,bus2=BMT121197759.2,Phases=1,Linecode=CAB202_3_1,Length=0.098530000,Units=km
new line.TR4967115 bus1=BMT3304349B.2,bus2=BMT6152222B.2,Phases=1,Linecode=CAB202_3_1,Length=0.064090000,Units=km
new line.TR4967129 bus1=BMT6152222B.2,bus2=BMT3304356B.2,Phases=1,Linecode=CAB202_3_1,Length=0.072280000,Units=km
new line.TR4972911 bus1=BMT135223862.2,bus2=BMT6156513B.2,Phases=1,Linecode=CAB202_3_1,Length=0.233200000,Units=km
new line.TR4972939 bus1=BMT6156513B.2,bus2=BMT6156541B.2,Phases=1,Linecode=CAB202_3_1,Length=0.163290000,Units=km
new line.TR4972995 bus1=BMT6156541B.2,bus2=BMT135223869.2,Phases=1,Linecode=CAB202_3_1,Length=0.106520000,Units=km
new line.TR4973072 bus1=BMT135223876.2,bus2=BMT6156611B.2,Phases=1,Linecode=CAB202_3_1,Length=0.110210000,Units=km
new line.TR4973079 bus1=BMT6156611B.2,bus2=BMT135223883.2,Phases=1,Linecode=CAB202_3_1,Length=0.111920000,Units=km
new line.TR4974451 bus1=BMT169999721.1,bus2=BMT169999722.1,Phases=1,Linecode=CAB202_3_1,Length=0.119380000,Units=km
new line.TR4974885 bus1=BMT169999729.1,bus2=BMT6158893B.1,Phases=1,Linecode=CAB202_3_1,Length=0.133270000,Units=km
new line.TR4974892 bus1=BMT6158893B.1,bus2=BMT2130841B.1,Phases=1,Linecode=CAB202_3_1,Length=0.132140000,Units=km
new line.TR4974962 bus1=BMT2130841B.1,bus2=BMT6158900B.1,Phases=1,Linecode=CAB202_3_1,Length=0.132060000,Units=km
new line.TR4974969 bus1=BMT6158900B.1,bus2=BMT6158907B.1,Phases=1,Linecode=CAB202_3_1,Length=0.132180000,Units=km
new line.TR4974983 bus1=BMT6158907B.1,bus2=BMT2130848B.1,Phases=1,Linecode=CAB202_3_1,Length=0.103210000,Units=km
new line.TR4975018 bus1=BMT2130848B.1,bus2=BMT6158914B.1,Phases=1,Linecode=CAB202_3_1,Length=0.174450000,Units=km
new line.TR4975025 bus1=BMT6158914B.1,bus2=BMT6158921B.1,Phases=1,Linecode=CAB202_3_1,Length=0.109460000,Units=km
new line.TR4975032 bus1=BMT6158921B.1,bus2=BMT6158928B.1,Phases=1,Linecode=CAB202_3_1,Length=0.137140000,Units=km
new line.TR4975039 bus1=BMT6158928B.1,bus2=BMT6158935B.1,Phases=1,Linecode=CAB202_3_1,Length=0.115020000,Units=km
new line.TR4975046 bus1=BMT6158935B.1,bus2=BMT169999730.1,Phases=1,Linecode=CAB202_3_1,Length=0.108450000,Units=km
new line.TR4980646 bus1=BMT121196604.1.2.3,bus2=BMT6164395B.1.2.3,Phases=3,Linecode=CAB202_3_3,Length=0.059960000,Units=km
new line.TR4980653 bus1=BMT6164395B.1.2.3,bus2=BMT121196611.1.2.3,Phases=3,Linecode=CAB202_3_3,Length=0.075690000,Units=km
new line.TR4980674 bus1=BMT121196611.1,bus2=BMT6164479B.1,Phases=1,Linecode=CAB202_3_1,Length=0.005830000,Units=km
new line.TR4980681 bus1=BMT6164479B.1,bus2=BMT121196618.1,Phases=1,Linecode=CAB202_3_1,Length=0.029980000,Units=km
new line.TR4980737 bus1=BMT121196625.1.2.3,bus2=BMT121196632.1.2.3,Phases=3,Linecode=CAB202_3_3,Length=0.093330000,Units=km
new line.TR4980744 bus1=BMT121196632.1.2.3,bus2=BMT121196639.1.2.3,Phases=3,Linecode=CAB202_3_3,Length=0.113270000,Units=km
new line.TR4981661 bus1=BMT160263325.1,bus2=BMT6165753B.1,Phases=1,Linecode=CAB202_3_1,Length=0.117590000,Units=km
new line.TR4981689 bus1=BMT6165753B.1,bus2=BMT6165760B.1,Phases=1,Linecode=CAB202_3_1,Length=0.100500000,Units=km
new line.TR12174900 bus1=BMT167293354.2,bus2=BMT167293356.2,Phases=1,Linecode=CABA06_3_1,Length=0.039310000,Units=km
new line.TR12176445 bus1=BMT167293349.2,bus2=BMT5598095B.2,Phases=1,Linecode=CABA06_3_1,Length=0.045030000,Units=km
new line.TR12176446 bus1=BMT5598095B.2,bus2=BMT8775362B.2,Phases=1,Linecode=CABA06_3_1,Length=0.025010000,Units=km
new line.TR12176447 bus1=BMT8775362B.2,bus2=BMT167293351.2,Phases=1,Linecode=CABA06_3_1,Length=0.036010000,Units=km
new line.TR12241916 bus1=BMT3897851B.1.2.3,bus2=BMT164632334.1.2.3,Phases=3,Linecode=CABA06_3_3,Length=0.046660000,Units=km
new line.TR12241926 bus1=BMT1536492B.1.2.3,bus2=BMT8843700B.1.2.3,Phases=3,Linecode=CABA06_3_3,Length=0.023860000,Units=km
new line.TR12241927 bus1=BMT8843700B.1.2.3,bus2=BMT3897830B.1.2.3,Phases=3,Linecode=CABA06_3_3,Length=0.022480000,Units=km
new line.TR12241928 bus1=BMT3897830B.1.2.3,bus2=BMT8843704B.1.2.3,Phases=3,Linecode=CABA06_3_3,Length=0.022480000,Units=km
new line.TR12241929 bus1=BMT8843704B.1.2.3,bus2=BMT3897837B.1.2.3,Phases=3,Linecode=CABA06_3_3,Length=0.024710000,Units=km
new line.TR12241930 bus1=BMT3897837B.1.2.3,bus2=BMT8843705B.1.2.3,Phases=3,Linecode=CABA06_3_3,Length=0.023860000,Units=km
new line.TR12241931 bus1=BMT8843705B.1.2.3,bus2=BMT3897844B.1.2.3,Phases=3,Linecode=CABA06_3_3,Length=0.023860000,Units=km
new line.TR12241933 bus1=BMT3897844B.1.2.3,bus2=BMT8843711B.1.2.3,Phases=3,Linecode=CABA06_3_3,Length=0.021640000,Units=km
new line.TR12241934 bus1=BMT8843711B.1.2.3,bus2=BMT3897851B.1.2.3,Phases=3,Linecode=CABA06_3_3,Length=0.021100000,Units=km
new line.TR12241944 bus1=BMT164632333.1.2.3,bus2=BMT1536492B.1.2.3,Phases=3,Linecode=CABA06_3_3,Length=0.045810000,Units=km
new line.TR12311310 bus1=BMT160252779.2,bus2=BMT160252781.2,Phases=1,Linecode=CAB202_3_1,Length=0.125010000,Units=km
new line.TR12627107 bus1=BMT167293355.2,bus2=BMT8628395B.2,Phases=1,Linecode=CABA06_3_1,Length=0.035180000,Units=km
new line.TR12627108 bus1=BMT8628395B.2,bus2=BMT9082376B.2,Phases=1,Linecode=CABA06_3_1,Length=0.040620000,Units=km
new line.TR12627109 bus1=BMT9082376B.2,bus2=BMT9082377B.2,Phases=1,Linecode=CABA06_3_1,Length=0.042590000,Units=km
new line.TR12627110 bus1=BMT9082377B.2,bus2=BMT167293357.2,Phases=1,Linecode=CABA06_3_1,Length=0.035710000,Units=km
new line.TR2129063 bus1=BMT169999717.1,bus2=BMT2839906B.1,Phases=1,Linecode=CABA06_3_1,Length=0.031590000,Units=km
new line.TR2180226 bus1=BMT2839850B.2,bus2=BMT2839864B.2,Phases=1,Linecode=CABA06_3_1,Length=0.039070000,Units=km
new line.TR2180233 bus1=BMT2839864B.2,bus2=BMT3747512B.2,Phases=1,Linecode=CABA06_3_1,Length=0.032770000,Units=km
new line.TR2180240 bus1=BMT2839899B.1,bus2=BMT169999718.1,Phases=1,Linecode=CABA06_3_1,Length=0.041790000,Units=km
new line.TR2180247 bus1=BMT2839906B.1,bus2=BMT2839899B.1,Phases=1,Linecode=CABA06_3_1,Length=0.028870000,Units=km
new line.TR2459008 bus1=BMT135223883.2,bus2=BMT135223897.2,Phases=1,Linecode=CAB202_3_1,Length=0.109590000,Units=km
new line.TR2459015 bus1=BMT135223883.2,bus2=BMT135223904.2,Phases=1,Linecode=CAB103_3_1,Length=0.049540000,Units=km
new line.TR2555279 bus1=BMT163588413.1.2.3,bus2=BMT1533097B.1.2.3,Phases=3,Linecode=CAB102_3_3,Length=0.014870000,Units=km
new line.TR2555454 bus1=BMT3347315B.2,bus2=BMT3747813B.2,Phases=1,Linecode=CABA06_3_1,Length=0.035790000,Units=km
new line.TR4287002 bus1=BMT167293344.2,bus2=BMT3747659B.2,Phases=1,Linecode=CABA06_3_1,Length=0.031080000,Units=km
new line.TR4287009 bus1=BMT3747659B.2,bus2=BMT3747666B.2,Phases=1,Linecode=CABA06_3_1,Length=0.047190000,Units=km
new line.TR4287016 bus1=BMT3747666B.2,bus2=BMT3747673B.2,Phases=1,Linecode=CABA06_3_1,Length=0.040510000,Units=km
...
