CemigDFeeders/COJ08/COJ08Transformadores.dss
new transformer.1392580 Phases=1,Windings=3,Buses=[BMT148644786.2 BBT148640140.1.0 BBT148640140.0.2],Conns=[wye wye wye],kvs=[7.967 0.12 0.12],kvas=[15.000000000 15.000000000 15.000000000],Taps=[1,1.000000000,1.000000000],%loadloss=1.600000000,%noloadloss=0.400000000
new transformer.1392581 Phases=1,Windings=3,Buses=[BMT148644785.2 BBT148640239.1.0 BBT148640239.0.2],Conns=[wye wye wye],kvs=[7.967 0.12 0.12],kvas=[15.000000000 15.000000000 15.000000000],Taps=[1,1.000000000,1.000000000],%loadloss=1.600000000,%noloadloss=0.400000000
new transformer.1392618 Phases=3,Windings=2,Buses=[BMT162984422.1.2.3 BBT148649371.1.2.3.0],Conns=[delta wye],kvs=[13.8 0.22],kvas=[30.000000000 30.000000000],Taps=[1,1.000000000],%loadloss=1.667000000,%noloadloss=0.433333000
new transformer.452962 Phases=3,Windings=2,Buses=[BMT137359107.1.2.3 BBT2023104.1.2.3.0],Conns=[delta wye],kvs=[13.8 0.22],kvas=[45.000000000 45.000000000],Taps=[1,1.000000000],%loadloss=1.522000000,%noloadloss=0.377777000
new transformer.452976 Phases=3,Windings=2,Buses=[BMT121196814.1.2.3 BBT2023230.1.2.3.0],Conns=[delta wye],kvs=[13.8 0.22],kvas=[45.000000000 45.000000000],Taps=[1,1.000000000],%loadloss=1.522000000,%noloadloss=0.377777000
new transformer.452983 Phases=1,Windings=3,Buses=[BMT148644783.2 BBT2023328.1.0 BBT2023328.0.2],Conns=[wye wye wye],kvs=[7.967 0.12 0.12],kvas=[25.000000000 25.000000000 25.000000000],Taps=[1,1.000000000,1.000000000],%loadloss=1.420000000,%noloadloss=0.320000000
new transformer.452997 Phases=3,Windings=2,Buses=[BMT121196674.1.2.3 BBT2023419.1.2.3.0],Conns=[delta wye],kvs=[13.8 0.22],kvas=[45.000000000 45.000000000],Taps=[1,1.000000000],%loadloss=1.522000000,%noloadloss=0.377777000
new transformer.453011 Phases=3,Windings=2,Buses=[BMT121198452.1.2.3 BBT2023538.1.2.3.0],Conns=[delta wye],kvs=[13.8 0.22],kvas=[45.000000000 45.000000000],Taps=[1,1.000000000],%loadloss=1.522000000,%noloadloss=0.377777000
new transformer.453032 Phases=3,Windings=2,Buses=[BMT166595297.1.2.3 BBT2023699.1.2.3.0],Conns=[delta wye],kvs=[13.8 0.22],kvas=[30.000000000 30.000000000],Taps=[1,1.000000000],%loadloss=1.667000000,%noloadloss=0.433333000
new transformer.453039 Phases=3,Windings=2,Buses=[BMT121196933.1.2.3 BBT2023811.1.2.3.0],Conns=[delta wye],kvs=[13.8 0.22],kvas=[45.000000000 45.000000000],Taps=[1,1.000000000],%loadloss=1.522000000,%noloadloss=0.377777000
new transformer.453046 Phases=3,Windings=2,Buses=[BMT121196590.1.2.3 BBT2023916.1.2.3.0],Conns=[delta wye],kvs=[13.8 0.22],kvas=[30.000000000 30.000000000],Taps=[1,1.000000000],%loadloss=1.667000000,%noloadloss=0.433333000
new transformer.453074 Phases=3,Windings=2,Buses=[BMT137359093.1.2.3 BBT2024014.1.2.3.0],Conns=[delta wye],kvs=[13.8 0.22],kvas=[15.000000000 15.000000000],Taps=[1,1.000000000],%loadloss=1.967000000,%noloadloss=0.500000000
new transformer.453088 Phases=3,Windings=2,Buses=[BMT137359100.1.2.3 BBT2024112.1.2.3.0],Conns=[delta wye],kvs=[13.8 0.22],kvas=[75.000000000 75.000000000],Taps=[1,1.000000000],%loadloss=1.340000000,%noloadloss=0.340000000
new transformer.453116 Phases=3,Windings=2,Buses=[BMT121196478.1.2.3 BBT2024441.1.2.3.0],Conns=[delta wye],kvs=[13.8 0.22],kvas=[30.000000000 30.000000000],Taps=[1,1.000000000],%loadloss=1.667000000,%noloadloss=0.433333000
new transformer.453130 Phases=3,Windings=2,Buses=[BMT166595372.1.2.3 BBT2024546.1.2.3.0],Conns=[delta wye],kvs=[13.8 0.22],kvas=[45.000000000 45.000000000],Taps=[1,1.000000000],%loadloss=1.522000000,%noloadloss=0.377777000
new transformer.453144 Phases=3,Windings=2,Buses=[BMT121196394.1.2.3 BBT2024651.1.2.3.0],Conns=[delta wye],kvs=[13.8 0.22],kvas=[30.000000000 30.000000000],Taps=[1,1.000000000],%loadloss=1.667000000,%noloadloss=0.433333000
new transformer.453172 Phases=3,Windings=2,Buses=[BMT170000095.1.2.3 BBT2024742.1.2.3.0],Conns=[delta wye],kvs=[13.8 0.22],kvas=[30.000000000 30.000000000],Taps=[1,1.000000000],%loadloss=1.667000000,%noloadloss=0.433333000
new transformer.453179 Phases=3,Windings=2,Buses=[BMT160356570.1.2.3 BBT2024875.1.2.3.0],Conns=[delta wye],kvs=[13.8 0.22],kvas=[30.000000000 30.000000000],Taps=[1,1.000000000],%loadloss=1.667000000,%noloadloss=0.433333000
new transformer.453193 Phases=3,Windings=2,Buses=[BMT162984421.1.2.3 BBT2025064.1.2.3.0],Conns=[delta wye],kvs=[13.8 0.22],kvas=[75.000000000 75.000000000],Taps=[1,1.000000000],%loadloss=1.340000000,%noloadloss=0.340000000
new transformer.453207 Phases=3,Windings=2,Buses=[BMT160356579.1.2.3 BBT2025239.1.2.3.0],Conns=[delta wye],kvs=[13.8 0.22],kvas=[45.000000000 45.000000000],Taps=[1,1.000000000],%loadloss=1.522000000,%noloadloss=0.377777000
new transformer.453221 Phases=3,Windings=2,Buses=[BMT160356572.1.2.3 BBT2025302.1.2.3.0],Conns=[delta wye],kvs=[13.8 0.22],kvas=[30.000000000 30.000000000],Taps=[1,1.000000000],%loadloss=1.667000000,%noloadloss=0.433333000
new transformer.453235 Phases=3,Windings=2,Buses=[BMT160356568.1.2.3 BBT2025442.1.2.3.0],Conns=[delta wye],kvs=[13.8 0.22],kvas=[75.000000000 75.000000000],Taps=[1,1.000000000],%loadloss=1.340000000,%noloadloss=0.340000000
new transformer.1400257 Phases=1,Windings=3,Buses=[BMT167293351.2 BBT150488699.1.0 BBT150488699.0.2],Conns=[wye wye wye],kvs=[7.967 0.12 0.12],kvas=[15.000000000 15.000000000 15.000000000],Taps=[1,1.000000000,1.000000000],%loadloss=1.600000000,%noloadloss=0.400000000
new transformer.1400479 Phases=3,Windings=2,Buses=[BMT155137067.1.2.3 BBT150540792.1.2.3.0],Conns=[delta wye],kvs=[13.8 0.22],kvas=[30.000000000 30.000000000],Taps=[1,1.000000000],%loadloss=1.667000000,%noloadloss=0.433333000
new transformer.1400491 Phases=3,Windings=2,Buses=[BMT155137068.1.2.3 BBT150542857.1.2.3.0],Conns=[delta wye],kvs=[13.8 0.22],kvas=[30.000000000 30.000000000],Taps=[1,1.000000000],%loadloss=1.667000000,%noloadloss=0.433333000
new transformer.1400509 Phases=3,Windings=2,Buses=[BMT155137069.1.2.3 BBT150546151.1.2.3.0],Conns=[delta wye],kvs=[13.8 0.22],kvas=[30.000000000 30.000000000],Taps=[1,1.000000000],%loadloss=1.667000000,%noloadloss=0.433333000
new transformer.1400511 Phases=3,Windings=2,Buses=[BMT155137070.1.2.3 BBT150546494.1.2.3.0],Conns=[delta wye],kvs=[13.8 0.22],kvas=[30.000000000 30.000000000],Taps=[1,1.000000000],%loadloss=1.667000000,%noloadloss=0.433333000
new transformer.453459 Phases=3,Windings=2,Buses=[BMT170000094.1.2.3 BBT2027248.1.2.3.0],Conns=[delta wye],kvs=[13.8 0.22],kvas=[45.000000000 45.000000000],Taps=[1,1.000000000],%loadloss=1.522000000,%noloadloss=0.377777000
new transformer.453487 Phases=3,Windings=2,Buses=[BMT154591366.1.2.3 BBT2027367.1.2.3.0],Conns=[delta wye],kvs=[13.8 0.22],kvas=[75.000000000 75.000000000],Taps=[1,1.000000000],%loadloss=1.340000000,%noloadloss=0.340000000
new transformer.453613 Phases=3,Windings=2,Buses=[BMT121197605.1.2.3 BBT2027857.1.2.3.0],Conns=[delta wye],kvs=[13.8 0.22],kvas=[45.000000000 45.000000000],Taps=[1,1.000000000],%loadloss=1.522000000,%noloadloss=0.377777000
new transformer.453634 Phases=3,Windings=2,Buses=[BMT121198277.1.2.3 BBT2027955.1.2.3.0],Conns=[delta wye],kvs=[13.8 0.22],kvas=[30.000000000 30.000000000],Taps=[1,1.000000000],%loadloss=1.667000000,%noloadloss=0.433333000
new transformer.453648 Phases=3,Windings=2,Buses=[BMT121198403.1.2.3 BBT2028067.1.2.3.0],Conns=[delta wye],kvs=[13.8 0.22],kvas=[45.000000000 45.000000000],Taps=[1,1.000000000],%loadloss=1.522000000,%noloadloss=0.377777000
new transformer.453662 Phases=3,Windings=2,Buses=[BMT161108149.1.2.3 BBT2028193.1.2.3.0],Conns=[delta wye],kvs=[13.8 0.22],kvas=[150.000000000 150.000000000],Taps=[1,1.000000000],%loadloss=1.127000000,%noloadloss=0.280000000
new transformer.453676 Phases=3,Windings=2,Buses=[BMT121196835.1.2.3 BBT2028312.1.2.3.0],Conns=[delta wye],kvs=[13.8 0.22],kvas=[30.000000000 30.000000000],Taps=[1,1.000000000],%loadloss=1.667000000,%noloadloss=0.433333000
new transformer.453690 Phases=3,Windings=2,Buses=[BMT163803789.1.2.3 BBT2028445.1.2.3.0],Conns=[delta wye],kvs=[13.8 0.22],kvas=[75.000000000 75.000000000],Taps=[1,1.000000000],%loadloss=1.340000000,%noloadloss=0.340000000
new transformer.453746 Phases=3,Windings=2,Buses=[BMT163803790.1.2.3 BBT2028774.1.2.3.0],Conns=[delta wye],kvs=[13.8 0.22],kvas=[45.000000000 45.000000000],Taps=[1,1.000000000],%loadloss=1.522000000,%noloadloss=0.377777000
new transformer.453788 Phases=1,Windings=3,Buses=[BMT160540339.1 BBT2029033.1.0 BBT2029033.0.2],Conns=[wye wye wye],kvs=[7.967 0.12 0.12],kvas=[15.000000000 15.000000000 15.000000000],Taps=[1,1.000000000,1.000000000],%loadloss=1.600000000,%noloadloss=0.400000000
new transformer.453795 Phases=3,Windings=2,Buses=[BMT137359114.1.2.3 BBT2029082.1.2.3.0],Conns=[delta wye],kvs=[13.8 0.22],kvas=[45.000000000 45.000000000],Taps=[1,1.000000000],%loadloss=1.522000000,%noloadloss=0.377777000
new transformer.453816 Phases=3,Windings=2,Buses=[BMT121197612.1.2.3 BBT2029222.1.2.3.0],Conns=[delta wye],kvs=[13.8 0.22],kvas=[100.000000000 100.000000000],Taps=[1,1.000000000],%loadloss=1.218000000,%noloadloss=0.335000000
new transformer.453830 Phases=3,Windings=2,Buses=[BMT121198284.1.2.3 BBT2029362.1.2.3.0],Conns=[delta wye],kvs=[13.8 0.22],kvas=[30.000000000 30.000000000],Taps=[1,1.000000000],%loadloss=1.667000000,%noloadloss=0.433333000
new transformer.453900 Phases=3,Windings=2,Buses=[BMT161635496.1.2.3 BBT2029740.1.2.3.0],Conns=[delta wye],kvs=[13.8 0.22],kvas=[45.000000000 45.000000000],Taps=[1,1.000000000],%loadloss=1.522000000,%noloadloss=0.377777000
new transformer.453928 Phases=1,Windings=3,Buses=[BMT160540338.1 BBT2029908.1.0 BBT2029908.0.2],Conns=[wye wye wye],kvs=[7.967 0.12 0.12],kvas=[25.000000000 25.000000000 25.000000000],Taps=[1,1.000000000,1.000000000],%loadloss=1.420000000,%noloadloss=0.320000000
new transformer.453956 Phases=3,Windings=2,Buses=[BMT163588418.1.2.3 BBT2030013.1.2.3.0],Conns=[delta wye],kvs=[13.8 0.22],kvas=[30.000000000 30.000000000],Taps=[1,1.000000000],%loadloss=1.667000000,%noloadloss=0.433333000
new transformer.453984 Phases=3,Windings=2,Buses=[BMT163588417.1.2.3 BBT2030174.1.2.3.0],Conns=[delta wye],kvs=[13.8 0.22],kvas=[30.000000000 30.000000000],Taps=[1,1.000000000],%loadloss=1.667000000,%noloadloss=0.433333000
new transformer.454012 Phases=3,Windings=2,Buses=[BMT121198487.1.2.3 BBT2030279.1.2.3.0],Conns=[delta wye],kvs=[13.8 0.22],kvas=[75.000000000 75.000000000],Taps=[1,1.000000000],%loadloss=1.340000000,%noloadloss=0.340000000
new transformer.454040 Phases=3,Windings=2,Buses=[BMT121198480.1.2.3 BBT2030587.1.2.3.0],Conns=[delta wye],kvs=[13.8 0.22],kvas=[75.000000000 75.000000000],Taps=[1,1.000000000],%loadloss=1.340000000,%noloadloss=0.340000000
new transformer.1093693 Phases=3,Windings=2,Buses=[BMT164455993.1.2.3 BBT140025988.1.2.3.0],Conns=[delta wye],kvs=[13.8 0.22],kvas=[30.000000000 30.000000000],Taps=[1,1.000000000],%loadloss=1.667000000,%noloadloss=0.433333000
new transformer.1445635 Phases=1,Windings=3,Buses=[BMT167293353.2 BBT160574808.1.0 BBT160574808.0.2],Conns=[wye wye wye],kvs=[7.967 0.12 0.12],kvas=[15.000000000 15.000000000 15.000000000],Taps=[1,1.000000000,1.000000000],%loadloss=1.600000000,%noloadloss=0.400000000
new transformer.698186 Phases=3,Windings=2,Buses=[BMT121196646.1.2.3 BBT3759195.1.2.3.0],Conns=[delta wye],kvs=[13.8 0.22],kvas=[75.000000000 75.000000000],Taps=[1,1.000000000],%loadloss=1.340000000,%noloadloss=0.340000000
new transformer.765421 Phases=1,Windings=3,Buses=[BMT160084995.2 BBT4344619.1.0 BBT4344619.0.2],Conns=[wye wye wye],kvs=[7.967 0.12 0.12],kvas=[5.000000000 5.000000000 5.000000000],Taps=[1,1.000000000,1.000000000],%loadloss=1.900000000,%noloadloss=0.600000000
new transformer.765428 Phases=1,Windings=3,Buses=[BMT160084996.2 BBT4344633.1.0 BBT4344633.0.2],Conns=[wye wye wye],kvs=[7.967 0.12 0.12],kvas=[5.000000000 5.000000000 5.000000000],Taps=[1,1.000000000,1.000000000],%loadloss=1.900000000,%noloadloss=0.600000000
new transformer.765435 Phases=1,Windings=3,Buses=[BMT160084997.2 BBT4344647.1.0 BBT4344647.0.2],Conns=[wye wye wye],kvs=[7.967 0.12 0.12],kvas=[5.000000000 5.000000000 5.000000000],Taps=[1,1.000000000,1.000000000],%loadloss=1.900000000,%noloadloss=0.600000000
new transformer.765442 Phases=1,Windings=3,Buses=[BMT160085003.2 BBT4344661.1.0 BBT4344661.0.2],Conns=[wye wye wye],kvs=[7.967 0.12 0.12],kvas=[5.000000000 5.000000000 5.000000000],Taps=[1,1.000000000,1.000000000],%loadloss=1.900000000,%noloadloss=0.600000000
new transformer.765449 Phases=1,Windings=3,Buses=[BMT169601356.2 BBT4344675.1.0 BBT4344675.0.2],Conns=[wye wye wye],kvs=[7.967 0.12 0.12],kvas=[5.000000000 5.000000000 5.000000000],Taps=[1,1.000000000,1.000000000],%loadloss=1.900000000,%noloadloss=0.600000000
new transformer.765456 Phases=1,Windings=3,Buses=[BMT160252784.2 BBT4344689.1.0 BBT4344689.0.2],Conns=[wye wye wye],kvs=[7.967 0.12 0.12],kvas=[10.000000000 10.000000000 10.000000000],Taps=[1,1.000000000,1.000000000],%loadloss=1.800000000,%noloadloss=0.450000000
new transformer.765463 Phases=1,Windings=3,Buses=[BMT160252783.2 BBT4344703.1.0 BBT4344703.0.2],Conns=[wye wye wye],kvs=[7.967 0.12 0.12],kvas=[5.000000000 5.000000000 5.000000000],Taps=[1,1.000000000,1.000000000],%loadloss=1.900000000,%noloadloss=0.600000000
new transformer.765470 Phases=1,Windings=3,Buses=[BMT121198060.2 BBT4344717.1.0 BBT4344717.0.2],Conns=[wye wye wye],kvs=[7.967 0.12 0.12],kvas=[5.000000000 5.000000000 5.000000000],Taps=[1,1.000000000,1.000000000],%loadloss=1.900000000,%noloadloss=0.600000000
new transformer.765477 Phases=1,Windings=3,Buses=[BMT121198067.2 BBT4344731.1.0 BBT4344731.0.2],Conns=[wye wye wye],kvs=[7.967 0.12 0.12],kvas=[5.000000000 5.000000000 5.000000000],Taps=[1,1.000000000,1.000000000],%loadloss=1.900000000,%noloadloss=0.600000000
new transformer.765484 Phases=1,Windings=3,Buses=[BMT121197997.2 BBT4344745.1.0 BBT4344745.0.2],Conns=[wye wye wye],kvs=[7.967 0.12 0.12],kvas=[5.000000000 5.000000000 5.000000000],Taps=[1,1.000000000,1.000000000],%loadloss=1.900000000,%noloadloss=0.600000000
new transformer.765491 Phases=1,Windings=3,Buses=[BMT121198018.2 BBT4344759.1.0 BBT4344759.0.2],Conns=[wye wye wye],kvs=[7.967 0.12 0.12],kvas=[5.000000000 5.000000000 5.000000000],Taps=[1,1.000000000,1.000000000],%loadloss=1.900000000,%noloadloss=0.600000000
new transformer.765498 Phases=1,Windings=3,Buses=[BMT121197990.2 BBT4344773.1.0 BBT4344773.0.2],Conns=[wye wye wye],kvs=[7.967 0.12 0.12],kvas=[5.000000000 5.000000000 5.000000000],Taps=[1,1.000000000,1.000000000],%loadloss=1.900000000,%noloadloss=0.600000000
new transformer.765505 Phases=1,Windings=3,Buses=[BMT169675773.2 BBT4344787.1.0 BBT4344787.0.2],Conns=[wye wye wye],kvs=[7.967 0.12 0.12],kvas=[5.000000000 5.000000000 5.000000000],Taps=[1,1.000000000,1.000000000],%loadloss=1.900000000,%noloadloss=0.600000000
new transformer.765813 Phases=1,Windings=3,Buses=[BMT160085000.2 BBT4346208.1.0 BBT4346208.0.2],Conns=[wye wye wye],kvs=[7.967 0.12 0.12],kvas=[5.000000000 5.000000000 5.000000000],Taps=[1,1.000000000,1.000000000],%loadloss=1.900000000,%noloadloss=0.600000000
new transformer.765848 Phases=1,Windings=3,Buses=[BMT121197948.2 BBT4346523.1.0 BBT4346523.0.2],Conns=[wye wye wye],kvs=[7.967 0.12 0.12],kvas=[5.000000000 5.000000000 5.000000000],Taps=[1,1.000000000,1.000000000],%loadloss=1.900000000,%noloadloss=0.600000000
new transformer.765855 Phases=1,Windings=3,Buses=[BMT121197962.2 BBT4346544.1.0 BBT4346544.0.2],Conns=[wye wye wye],kvs=[7.967 0.12 0.12],kvas=[5.000000000 5.000000000 5.000000000],Taps=[1,1.000000000,1.000000000],%loadloss=1.900000000,%noloadloss=0.600000000
new transformer.765862 Phases=1,Windings=3,Buses=[BMT121197976.2 BBT4346565.1.0 BBT4346565.0.2],Conns=[wye wye wye],kvs=[7.967 0.12 0.12],kvas=[5.000000000 5.000000000 5.000000000],Taps=[1,1.000000000,1.000000000],%loadloss=1.900000000,%noloadloss=0.600000000
new transformer.765876 Phases=1,Windings=3,Buses=[BMT121198004.2 BBT4346670.1.0 BBT4346670.0.2],Conns=[wye wye wye],kvs=[7.967 0.12 0.12],kvas=[5.000000000 5.000000000 5.000000000],Taps=[1,1.000000000,1.000000000],%loadloss=1.900000000,%noloadloss=0.600000000
new transformer.765883 Phases=1,Windings=3,Buses=[BMT121197878.2 BBT4346719.1.0 BBT4346719.0.2],Conns=[wye wye wye],kvs=[7.967 0.12 0.12],kvas=[5.000000000 5.000000000 5.000000000],Taps=[1,1.000000000,1.000000000],%loadloss=1.900000000,%noloadloss=0.600000000
new transformer.765890 Phases=1,Windings=3,Buses=[BMT169675772.2 BBT4346845.1.0 BBT4346845.0.2],Conns=[wye wye wye],kvs=[7.967 0.12 0.12],kvas=[5.000000000 5.000000000 5.000000000],Taps=[1,1.000000000,1.000000000],%loadloss=1.900000000,%noloadloss=0.600000000
new transformer.799343 Phases=1,Windings=3,Buses=[BMT169601354.2 BBT4692071.1.0 BBT4692071.0.2],Conns=[wye wye wye],kvs=[7.967 0.12 0.12],kvas=[5.000000000 5.000000000 5.000000000],Taps=[1,1.000000000,1.000000000],%loadloss=1.900000000,%noloadloss=0.600000000
new transformer.960434 Phases=1,Windings=3,Buses=[BMT169999725.1 BBT78113284.1.0 BBT78113284.0.2],Conns=[wye wye wye],kvs=[7.967 0.12 0.12],kvas=[5.000000000 5.000000000 5.000000000],Taps=[1,1.000000000,1.000000000],%loadloss=1.900000000,%noloadloss=0.600000000
new transformer.1045260 Phases=1,Windings=3,Buses=[BMT167293352.2 BBT111079308.1.0 BBT111079308.0.2],Conns=[wye wye wye],kvs=[7.967 0.12 0.12],kvas=[15.000000000 15.000000000 15.000000000],Taps=[1,1.000000000,1.000000000],%loadloss=1.600000000,%noloadloss=0.400000000
new transformer.1046310 Phases=1,Windings=3,Buses=[BMT146342326.1 BBT111871358.1.0 BBT111871358.0.2],Conns=[wye wye wye],kvs=[7.967 0.12 0.12],kvas=[35.000000000 35.000000000 35.000000000],Taps=[1,1.000000000,1.000000000],%loadloss=1.293000000,%noloadloss=0.342857000
new transformer.1120601 Phases=1,Windings=3,Buses=[BMT160408319.2 BBT146965137.1.0 BBT146965137.0.2],Conns=[wye wye wye],kvs=[7.967 0.12 0.12],kvas=[15.000000000 15.000000000 15.000000000],Taps=[1,1.000000000,1.000000000],%loadloss=1.600000000,%noloadloss=0.400000000
new transformer.1121413 Phases=3,Windings=2,Buses=[BMT163588414.1.2.3 BBT147181059.1.2.3.0],Conns=[delta wye],kvs=[13.8 0.22],kvas=[30.000000000 30.000000000],Taps=[1,1.000000000],%loadloss=1.667000000,%noloadloss=0.433333000
new transformer.1409934 Phases=3,Windings=2,Buses=[BMT164632334.1.2.3 BBT152823085.1.2.3.0],Conns=[delta wye],kvs=[13.8 0.22],kvas=[45.000000000 45.000000000],Taps=[1,1.000000000],%loadloss=1.522000000,%noloadloss=0.377777000
new transformer.454775 Phases=3,Windings=2,Buses=[BMT121198396.1.2.3 BBT2033254.1.2.3.0],Conns=[delta wye],kvs=[13.8 0.22],kvas=[45.000000000 45.000000000],Taps=[1,1.000000000],%loadloss=1.522000000,%noloadloss=0.377777000
new transformer.454803 Phases=3,Windings=2,Buses=[BMT121198291.1.2.3 BBT2033457.1.2.3.0],Conns=[delta wye],kvs=[13.8 0.22],kvas=[45.000000000 45.000000000],Taps=[1,1.000000000],%loadloss=1.522000000,%noloadloss=0.377777000
new transformer.454831 Phases=3,Windings=2,Buses=[BMT163803792.1.2.3 BBT2033618.1.2.3.0],Conns=[delta wye],kvs=[13.8 0.22],kvas=[45.000000000 45.000000000],Taps=[1,1.000000000],%loadloss=1.522000000,%noloadloss=0.377777000
new transformer.454852 Phases=3,Windings=2,Buses=[BMT121197619.1.2.3 BBT2033737.1.2.3.0],Conns=[delta wye],kvs=[13.8 0.22],kvas=[45.000000000 45.000000000],Taps=[1,1.000000000],%loadloss=1.522000000,%noloadloss=0.377777000
new transformer.454859 Phases=3,Windings=2,Buses=[BMT164632331.1.2.3 BBT2033856.1.2.3.0],Conns=[delta wye],kvs=[13.8 0.22],kvas=[75.000000000 75.000000000],Taps=[1,1.000000000],%loadloss=1.340000000,%noloadloss=0.340000000
new transformer.454866 Phases=3,Windings=2,Buses=[BMT164632329.1.2.3 BBT2033898.1.2.3.0],Conns=[delta wye],kvs=[13.8 0.22],kvas=[100.000000000 100.000000000],Taps=[1,1.000000000],%loadloss=1.218000000,%noloadloss=0.335000000
new transformer.454880 Phases=3,Windings=2,Buses=[BMT121197332.1.2.3 BBT2033968.1.2.3.0],Conns=[delta wye],kvs=[13.8 0.22],kvas=[30.000000000 30.000000000],Taps=[1,1.000000000],%loadloss=1.667000000,%noloadloss=0.433333000
new transformer.454894 Phases=3,Windings=2,Buses=[BMT164455991.1.2.3 BBT2034101.1.2.3.0],Conns=[delta wye],kvs=[13.8 0.22],kvas=[30.000000000 30.000000000],Taps=[1,1.000000000],%loadloss=1.667000000,%noloadloss=0.433333000
new transformer.454908 Phases=3,Windings=2,Buses=[BMT121197346.1.2.3 BBT2034220.1.2.3.0],Conns=[delta wye],kvs=[13.8 0.22],kvas=[75.000000000 75.000000000],Taps=[1,1.000000000],%loadloss=1.340000000,%noloadloss=0.340000000
new transformer.454929 Phases=3,Windings=2,Buses=[BMT121197542.1.2.3 BBT2034444.1.2.3.0],Conns=[delta wye],kvs=[13.8 0.22],kvas=[45.000000000 45.000000000],Taps=[1,1.000000000],%loadloss=1.522000000,%noloadloss=0.377777000
new transformer.455055 Phases=3,Windings=2,Buses=[BMT164455995.1.2.3 BBT2034724.1.2.3.0],Conns=[delta wye],kvs=[13.8 0.22],kvas=[45.000000000 45.000000000],Taps=[1,1.000000000],%loadloss=1.522000000,%noloadloss=0.377777000
new transformer.455083 Phases=3,Windings=2,Buses=[BMT164632332.1.2.3 BBT2034941.1.2.3.0],Conns=[delta wye],kvs=[13.8 0.22],kvas=[75.000000000 75.000000000],Taps=[1,1.000000000],%loadloss=1.340000000,%noloadloss=0.340000000
new transformer.455146 Phases=1,Windings=3,Buses=[BMT161723872.2 BBT2035109.1.0 BBT2035109.0.2],Conns=[wye wye wye],kvs=[7.967 0.12 0.12],kvas=[25.000000000 25.000000000 25.000000000],Taps=[1,1.000000000,1.000000000],%loadloss=1.420000000,%noloadloss=0.320000000
new transformer.455202 Phases=1,Windings=3,Buses=[BMT161723870.2 BBT2035277.1.0 BBT2035277.0.2],Conns=[wye wye wye],kvs=[7.967 0.12 0.12],kvas=[25.000000000 25.000000000 25.000000000],Taps=[1,1.000000000,1.000000000],%loadloss=1.420000000,%noloadloss=0.320000000
new transformer.455258 Phases=1,Windings=3,Buses=[BMT161723868.2 BBT2035578.1.0 BBT2035578.0.2],Conns=[wye wye wye],kvs=[7.967 0.12 0.12],kvas=[25.000000000 25.000000000 25.000000000],Taps=[1,1.000000000,1.000000000],%loadloss=1.420000000,%noloadloss=0.320000000
new transformer.566852 Phases=3,Windings=2,Buses=[BMT121198340.1.2.3 BBT2737055.1.2.3.0],Conns=[delta wye],kvs=[13.8 0.22],kvas=[100.000000000 100.000000000],Taps=[1,1.000000000],%loadloss=1.218000000,%noloadloss=0.335000000
new transformer.1116751 Phases=1,Windings=3,Buses=[BMT167293355.2 BBT145941954.1.0 BBT145941954.0.2],Conns=[wye wye wye],kvs=[7.967 0.12 0.12],kvas=[15.000000000 15.000000000 15.000000000],Taps=[1,1.000000000,1.000000000],%loadloss=1.600000000,%noloadloss=0.400000000
new transformer.1449316 Phases=1,Windings=3,Buses=[BMT167293348.2 BBT161476987.1.0 BBT161476987.0.2],Conns=[wye wye wye],kvs=[7.967 0.12 0.12],kvas=[15.000000000 15.000000000 15.000000000],Taps=[1,1.000000000,1.000000000],%loadloss=1.600000000,%noloadloss=0.400000000
new transformer.613080 Phases=1,Windings=3,Buses=[BMT131818187.2 BBT3144889.1.0 BBT3144889.0.2],Conns=[wye wye wye],kvs=[7.967 0.12 0.12],kvas=[5.000000000 5.000000000 5.000000000],Taps=[1,1.000000000,1.000000000],%loadloss=1.900000000,%noloadloss=0.600000000
new transformer.619968 Phases=1,Windings=3,Buses=[BMT160253978.2 BBT3190389.1.0 BBT3190389.0.2],Conns=[wye wye wye],kvs=[7.967 0.12 0.12],kvas=[15.000000000 15.000000000 15.000000000],Taps=[1,1.000000000,1.000000000],%loadloss=1.600000000,%noloadloss=0.400000000
new transformer.619975 Phases=1,Windings=3,Buses=[BMT160253980.2 BBT3190403.1.0 BBT3190403.0.2],Conns=[wye wye wye],kvs=[7.967 0.12 0.12],kvas=[5.000000000 5.000000000 5.000000000],Taps=[1,1.000000000,1.000000000],%loadloss=1.900000000,%noloadloss=0.600000000
new transformer.712914 Phases=1,Windings=3,Buses=[BMT169601355.2 BBT3919628.1.0 BBT3919628.0.2],Conns=[wye wye wye],kvs=[7.967 0.12 0.12],kvas=[5.000000000 5.000000000 5.000000000],Taps=[1,1.000000000,1.000000000],%loadloss=1.900000000,%noloadloss=0.600000000
new transformer.453249 Phases=3,Windings=2,Buses=[BMT163478062.1.2.3 BBT2025589.1.2.3.0],Conns=[delta wye],kvs=[13.8 0.22],kvas=[30.000000000 30.000000000],Taps=[1,1.000000000],%loadloss=1.667000000,%noloadloss=0.433333000
new transformer.453256 Phases=3,Windings=2,Buses=[BMT146342298.1.2.3 BBT2025764.1.2.3.0],Conns=[delta wye],kvs=[13.8 0.22],kvas=[75.000000000 75.000000000],Taps=[1,1.000000000],%loadloss=1.340000000,%noloadloss=0.340000000
new transformer.453270 Phases=3,Windings=2,Buses=[BMT163478061.1.2.3 BBT2025918.1.2.3.0],Conns=[delta wye],kvs=[13.8 0.22],kvas=[30.000000000 30.000000000],Taps=[1,1.000000000],%loadloss=1.667000000,%noloadloss=0.433333000
new transformer.453284 Phases=1,Windings=3,Buses=[BMT146342319.1 BBT2026051.1.0 BBT2026051.0.2],Conns=[wye wye wye],kvs=[7.967 0.12 0.12],kvas=[25.000000000 25.000000000 25.000000000],Taps=[1,1.000000000,1.000000000],%loadloss=1.420000000,%noloadloss=0.320000000
new transformer.453298 Phases=3,Windings=2,Buses=[BMT121197052.1.2.3 BBT2026177.1.2.3.0],Conns=[delta wye],kvs=[13.8 0.22],kvas=[100.000000000 100.000000000],Taps=[1,1.000000000],%loadloss=1.218000000,%noloadloss=0.335000000
new transformer.453312 Phases=3,Windings=2,Buses=[BMT160263323.1.2.3 BBT2026387.1.2.3.0],Conns=[delta wye],kvs=[13.8 0.22],kvas=[45.000000000 45.000000000],Taps=[1,1.000000000],%loadloss=1.522000000,%noloadloss=0.377777000
new transformer.453326 Phases=3,Windings=2,Buses=[BMT121197325.1.2.3 BBT2026485.1.2.3.0],Conns=[delta wye],kvs=[13.8 0.22],kvas=[30.000000000 30.000000000],Taps=[1,1.000000000],%loadloss=1.667000000,%noloadloss=0.433333000
new transformer.453368 Phases=3,Windings=2,Buses=[BMT121198256.1.2.3 BBT2026653.1.2.3.0],Conns=[delta wye],kvs=[13.8 0.22],kvas=[45.000000000 45.000000000],Taps=[1,1.000000000],%loadloss=1.522000000,%noloadloss=0.377777000
new transformer.453382 Phases=3,Windings=2,Buses=[BMT166595373.1.2.3 BBT2026681.1.2.3.0],Conns=[delta wye],kvs=[13.8 0.22],kvas=[45.000000000 45.000000000],Taps=[1,1.000000000],%loadloss=1.522000000,%noloadloss=0.377777000
new transformer.453396 Phases=3,Windings=2,Buses=[BMT121198242.1.2.3 BBT2026898.1.2.3.0],Conns=[delta wye],kvs=[13.8 0.22],kvas=[45.000000000 45.000000000],Taps=[1,1.000000000],%loadloss=1.522000000,%noloadloss=0.377777000
new transformer.453431 Phases=3,Windings=2,Buses=[BMT121198270.1.2.3 BBT2027024.1.2.3.0],Conns=[delta wye],kvs=[13.8 0.22],kvas=[75.000000000 75.000000000],Taps=[1,1.000000000],%loadloss=1.340000000,%noloadloss=0.340000000
new transformer.553405 Phases=1,Windings=3,Buses=[BMT160084993.2 BBT2552654.1.0 BBT2552654.0.2],Conns=[wye wye wye],kvs=[7.967 0.12 0.12],kvas=[10.000000000 10.000000000 10.000000000],Taps=[1,1.000000000,1.000000000],%loadloss=1.800000000,%noloadloss=0.450000000
new transformer.843506 Phases=1,Windings=3,Buses=[BMT160408320.2 BBT5859909.1.0 BBT5859909.0.2],Conns=[wye wye wye],kvs=[7.967 0.12 0.12],kvas=[15.000000000 15.000000000 15.000000000],Taps=[1,1.000000000,1.000000000],%loadloss=1.600000000,%noloadloss=0.400000000
new transformer.933197 Phases=1,Windings=3,Buses=[BMT131818194.2 BBT48120181.1.0 BBT48120181.0.2],Conns=[wye wye wye],kvs=[7.967 0.12 0.12],kvas=[25.000000000 25.000000000 25.000000000],Taps=[1,1.000000000,1.000000000],%loadloss=1.420000000,%noloadloss=0.320000000
new transformer.454068 Phases=3,Windings=2,Buses=[BMT161635498.1.2.3 BBT2030699.1.2.3.0],Conns=[delta wye],kvs=[13.8 0.22],kvas=[45.000000000 45.000000000],Taps=[1,1.000000000],%loadloss=1.522000000,%noloadloss=0.377777000
new transformer.670669 Phases=1,Windings=3,Buses=[BMT167293344.2 BBT3568963.1.0 BBT3568963.0.2],Conns=[wye wye wye],kvs=[7.967 0.12 0.12],kvas=[35.000000000 35.000000000 35.000000000],Taps=[1,1.000000000,1.000000000],%loadloss=1.293000000,%noloadloss=0.342857000
new transformer.670697 Phases=1,Windings=3,Buses=[BMT156038554.2 BBT3569271.1.0 BBT3569271.0.2],Conns=[wye wye wye],kvs=[7.967 0.12 0.12],kvas=[15.000000000 15.000000000 15.000000000],Taps=[1,1.000000000,1.000000000],%loadloss=1.600000000,%noloadloss=0.400000000
new transformer.959391 Phases=1,Windings=3,Buses=[BMT135223939.2 BBT62967286.1.0 BBT62967286.0.2],Conns=[wye wye wye],kvs=[7.967 0.12 0.12],kvas=[5.000000000 5.000000000 5.000000000],Taps=[1,1.000000000,1.000000000],%loadloss=1.900000000,%noloadloss=0.600000000
new transformer.959517 Phases=1,Windings=3,Buses=[BMT135223932.2 BBT63041290.1.0 BBT63041290.0.2],Conns=[wye wye wye],kvs=[7.967 0.12 0.12],kvas=[5.000000000 5.000000000 5.000000000],Taps=[1,1.000000000,1.000000000],%loadloss=1.900000000,%noloadloss=0.600000000
new transformer.959545 Phases=1,Windings=3,Buses=[BMT135223925.2 BBT63053239.1.0 BBT63053239.0.2],Conns=[wye wye wye],kvs=[7.967 0.12 0.12],kvas=[5.000000000 5.000000000 5.000000000],Taps=[1,1.000000000,1.000000000],%loadloss=1.900000000,%noloadloss=0.600000000
new transformer.959615 Phases=1,Windings=3,Buses=[BMT135223890.2 BBT63116624.1.0 BBT63116624.0.2],Conns=[wye wye wye],kvs=[7.967 0.12 0.12],kvas=[5.000000000 5.000000000 5.000000000],Taps=[1,1.000000000,1.000000000],%loadloss=1.900000000,%noloadloss=0.600000000
new transformer.1071076 Phases=1,Windings=3,Buses=[BMT160252785.2 BBT133550512.1.0 BBT133550512.0.2],Conns=[wye wye wye],kvs=[7.967 0.12 0.12],kvas=[15.000000000 15.000000000 15.000000000],Taps=[1,1.000000000,1.000000000],%loadloss=1.600000000,%noloadloss=0.400000000
new transformer.1095870 Phases=1,Windings=3,Buses=[BMT169999726.1 BBT140407691.1.0 BBT140407691.0.2],Conns=[wye wye wye],kvs=[7.967 0.12 0.12],kvas=[5.000000000 5.000000000 5.000000000],Taps=[1,1.000000000,1.000000000],%loadloss=1.900000000,%noloadloss=0.600000000
new transformer.1414271 Phases=1,Windings=3,Buses=[BMT160085002.2 BBT153707363.1.0 BBT153707363.0.2],Conns=[wye wye wye],kvs=[7.967 0.12 0.12],kvas=[10.000000000 10.000000000 10.000000000],Taps=[1,1.000000000,1.000000000],%loadloss=1.800000000,%noloadloss=0.450000000
new transformer.455804 Phases=1,Windings=3,Buses=[BMT169999718.1 BBT2036761.1.0 BBT2036761.0.2],Conns=[wye wye wye],kvs=[7.967 0.12 0.12],kvas=[15.000000000 15.000000000 15.000000000],Taps=[1,1.000000000,1.000000000],%loadloss=1.600000000,%noloadloss=0.400000000
new transformer.517775 Phases=3,Windings=2,Buses=[BMT155137065.1.2.3 BBT2407831.1.2.3.0],Conns=[delta wye],kvs=[13.8 0.22],kvas=[45.000000000 45.000000000],Taps=[1,1.000000000],%loadloss=1.522000000,%noloadloss=0.377777000
new transformer.517901 Phases=3,Windings=2,Buses=[BMT160356573.1.2.3 BBT2408538.1.2.3.0],Conns=[delta wye],kvs=[13.8 0.22],kvas=[30.000000000 30.000000000],Taps=[1,1.000000000],%loadloss=1.667000000,%noloadloss=0.433333000
new transformer.691242 Phases=3,Windings=2,Buses=[BMT121196492.1.2.3 BBT3702460.1.2.3.0],Conns=[delta wye],kvs=[13.8 0.22],kvas=[45.000000000 45.000000000],Taps=[1,1.000000000],%loadloss=1.522000000,%noloadloss=0.377777000
new transformer.802584 Phases=1,Windings=3,Buses=[BMT160085001.2 BBT4729325.1.0 BBT4729325.0.2],Conns=[wye wye wye],kvs=[7.967 0.12 0.12],kvas=[5.000000000 5.000000000 5.000000000],Taps=[1,1.000000000,1.000000000],%loadloss=1.900000000,%noloadloss=0.600000000
new transformer.869105 Phases=1,Windings=3,Buses=[BMT167293346.2 BBT12514466.1.0 BBT12514466.0.2],Conns=[wye wye wye],kvs=[7.967 0.12 0.12],kvas=[15.000000000 15.000000000 15.000000000],Taps=[1,1.000000000,1.000000000],%loadloss=1.600000000,%noloadloss=0.400000000
new transformer.904329 Phases=3,Windings=2,Buses=[BMT121198333.1.2.3 BBT29130961.1.2.3.0],Conns=[delta wye],kvs=[13.8 0.22],kvas=[75.000000000 75.000000000],Taps=[1,1.000000000],%loadloss=1.340000000,%noloadloss=0.340000000
new transformer.1066764 Phases=1,Windings=3,Buses=[BMT160408321.2 BBT131832446.1.0 BBT131832446.0.2],Conns=[wye wye wye],kvs=[7.967 0.12 0.12],kvas=[10.000000000 10.000000000 10.000000000],Taps=[1,1.000000000,1.000000000],%loadloss=1.800000000,%noloadloss=0.450000000
new transformer.1395807 Phases=1,Windings=3,Buses=[BMT160253979.2 BBT149377992.1.0 BBT149377992.0.2],Conns=[wye wye wye],kvs=[7.967 0.12 0.12],kvas=[15.000000000 15.000000000 15.000000000],Taps=[1,1.000000000,1.000000000],%loadloss=1.600000000,%noloadloss=0.400000000
new transformer.1444260 Phases=1,Windings=3,Buses=[BMT160102481.2 BBT160101838.1.0 BBT160101838.0.2],Conns=[wye wye wye],kvs=[7.967 0.12 0.12],kvas=[10.000000000 10.000000000 10.000000000],Taps=[1,1.000000000,1.000000000],%loadloss=1.800000000,%noloadloss=0.450000000
new transformer.1454296 Phases=3,Windings=2,Buses=[BMT163588415.1.2.3 BBT162860029.1.2.3.0],Conns=[delta wye],kvs=[13.8 0.22],kvas=[30.000000000 30.000000000],Taps=[1,1.000000000],%loadloss=1.667000000,%noloadloss=0.433333000
new transformer.1475316 Phases=1,Windings=3,Buses=[BMT167293357.2 BBT167293341.1.0 BBT167293341.0.2],Conns=[wye wye wye],kvs=[7.967 0.12 0.12],kvas=[15.000000000 15.000000000 15.000000000],Taps=[1,1.000000000,1.000000000],%loadloss=1.600000000,%noloadloss=0.400000000
new transformer.389591 Phases=1,Windings=3,Buses=[BMT160084994.2 BBT1688217.1.0 BBT1688217.0.2],Conns=[wye wye wye],kvs=[7.967 0.12 0.12],kvas=[5.000000000 5.000000000 5.000000000],Taps=[1,1.000000000,1.000000000],%loadloss=1.900000000,%noloadloss=0.600000000
new transformer.415295 Phases=1,Windings=3,Buses=[BMT137359142.2 BBT1895018.1.0 BBT1895018.0.2],Conns=[wye wye wye],kvs=[7.967 0.12 0.12],kvas=[25.000000000 25.000000000 25.000000000],Taps=[1,1.000000000,1.000000000],%loadloss=1.420000000,%noloadloss=0.320000000
new transformer.447089 Phases=1,Windings=3,Buses=[BMT160263326.1 BBT2005534.1.0 BBT2005534.0.2],Conns=[wye wye wye],kvs=[7.967 0.12 0.12],kvas=[10.000000000 10.000000000 10.000000000],Taps=[1,1.000000000,1.000000000],%loadloss=1.800000000,%noloadloss=0.450000000
new transformer.772442 Phases=1,Windings=3,Buses=[BMT160102479.2 BBT4441471.1.0 BBT4441471.0.2],Conns=[wye wye wye],kvs=[7.967 0.12 0.12],kvas=[5.000000000 5.000000000 5.000000000],Taps=[1,1.000000000,1.000000000],%loadloss=1.900000000,%noloadloss=0.600000000
new transformer.772449 Phases=1,Windings=3,Buses=[BMT160102477.2 BBT4441625.1.0 BBT4441625.0.2],Conns=[wye wye wye],kvs=[7.967 0.12 0.12],kvas=[5.000000000 5.000000000 5.000000000],Taps=[1,1.000000000,1.000000000],%loadloss=1.900000000,%noloadloss=0.600000000
new transformer.1399774 Phases=1,Windings=3,Buses=[BMT161723871.2 BBT150359937.1.0 BBT150359937.0.2],Conns=[wye wye wye],kvs=[7.967 0.12 0.12],kvas=[15.000000000 15.000000000 15.000000000],Taps=[1,1.000000000,1.000000000],%loadloss=1.600000000,%noloadloss=0.400000000
new transformer.1399840 Phases=1,Windings=3,Buses=[BMT167293347.2 BBT150378631.1.0 BBT150378631.0.2],Conns=[wye wye wye],kvs=[7.967 0.12 0.12],kvas=[15.000000000 15.000000000 15.000000000],Taps=[1,1.000000000,1.000000000],%loadloss=1.600000000,%noloadloss=0.400000000
new transformer.1400076 Phases=1,Windings=3,Buses=[BMT167293356.2 BBT150436603.1.0 BBT150436603.0.2],Conns=[wye wye wye],kvs=[7.967 0.12 0.12],kvas=[15.000000000 15.000000000 15.000000000],Taps=[1,1.000000000,1.000000000],%loadloss=1.600000000,%noloadloss=0.400000000
new transformer.1414927 Phases=1,Windings=3,Buses=[BMT169999728.1 BBT153852898.1.0 BBT153852898.0.2],Conns=[wye wye wye],kvs=[7.967 0.12 0.12],kvas=[10.000000000 10.000000000 10.000000000],Taps=[1,1.000000000,1.000000000],%loadloss=1.800000000,%noloadloss=0.450000000
new transformer.1420634 Phases=1,Windings=3,Buses=[BMT160252781.2 BBT155185219.1.0 BBT155185219.0.2],Conns=[wye wye wye],kvs=[7.967 0.12 0.12],kvas=[10.000000000 10.000000000 10.000000000],Taps=[1,1.000000000,1.000000000],%loadloss=1.800000000,%noloadloss=0.450000000
new transformer.1488719 Phases=1,Windings=3,Buses=[BMT169675774.2 BBT169675665.1.0 BBT169675665.0.2],Conns=[wye wye wye],kvs=[7.967 0.12 0.12],kvas=[10.000000000 10.000000000 10.000000000],Taps=[1,1.000000000,1.000000000],%loadloss=1.800000000,%noloadloss=0.450000000
new transformer.389766 Phases=1,Windings=3,Buses=[BMT121196618.1 BBT1690009.1.0 BBT1690009.0.2],Conns=[wye wye wye],kvs=[7.967 0.12 0.12],kvas=[15.000000000 15.000000000 15.000000000],Taps=[1,1.000000000,1.000000000],%loadloss=1.600000000,%noloadloss=0.400000000
new transformer.390039 Phases=1,Windings=3,Buses=[BMT169999722.1 BBT1692228.1.0 BBT1692228.0.2],Conns=[wye wye wye],kvs=[7.967 0.12 0.12],kvas=[10.000000000 10.000000000 10.000000000],Taps=[1,1.000000000,1.000000000],%loadloss=1.800000000,%noloadloss=0.450000000
new transformer.390053 Phases=1,Windings=3,Buses=[BMT169999730.1 BBT1692256.1.0 BBT1692256.0.2],Conns=[wye wye wye],kvs=[7.967 0.12 0.12],kvas=[10.000000000 10.000000000 10.000000000],Taps=[1,1.000000000,1.000000000],%loadloss=1.800000000,%noloadloss=0.450000000
new transformer.390067 Phases=1,Windings=3,Buses=[BMT135223897.2 BBT1692333.1.0 BBT1692333.0.2],Conns=[wye wye wye],kvs=[7.967 0.12 0.12],kvas=[25.000000000 25.000000000 25.000000000],Taps=[1,1.000000000,1.000000000],%loadloss=1.420000000,%noloadloss=0.320000000
new transformer.454131 Phases=1,Windings=3,Buses=[BMT121197500.1 BBT2031063.1.0 BBT2031063.0.2],Conns=[wye wye wye],kvs=[7.967 0.12 0.12],kvas=[25.000000000 25.000000000 25.000000000],Taps=[1,1.000000000,1.000000000],%loadloss=1.420000000,%noloadloss=0.320000000
new transformer.454187 Phases=3,Windings=2,Buses=[BMT154526801.1.2.3 BBT2031301.1.2.3.0],Conns=[delta wye],kvs=[13.8 0.22],kvas=[15.000000000 15.000000000],Taps=[1,1.000000000],%loadloss=1.967000000,%noloadloss=0.500000000
new transformer.454208 Phases=3,Windings=2,Buses=[BMT121196968.1.2.3 BBT2031448.1.2.3.0],Conns=[delta wye],kvs=[13.8 0.22],kvas=[100.000000000 100.000000000],Taps=[1,1.000000000],%loadloss=1.218000000,%noloadloss=0.335000000
new transformer.454215 Phases=3,Windings=2,Buses=[BMT154526799.1.2.3 BBT2031567.1.2.3.0],Conns=[delta wye],kvs=[13.8 0.22],kvas=[30.000000000 30.000000000],Taps=[1,1.000000000],%loadloss=1.667000000,%noloadloss=0.433333000
new transformer.454236 Phases=3,Windings=2,Buses=[BMT121196352.1.2.3 BBT2031742.1.2.3.0],Conns=[delta wye],kvs=[13.8 0.22],kvas=[30.000000000 30.000000000],Taps=[1,1.000000000],%loadloss=1.667000000,%noloadloss=0.433333000
new transformer.454250 Phases=3,Windings=2,Buses=[BMT121196975.1.2.3 BBT2031840.1.2.3.0],Conns=[delta wye],kvs=[13.8 0.22],kvas=[75.000000000 75.000000000],Taps=[1,1.000000000],%loadloss=1.340000000,%noloadloss=0.340000000
new transformer.454264 Phases=1,Windings=3,Buses=[BMT160540337.1 BBT2032001.1.0 BBT2032001.0.2],Conns=[wye wye wye],kvs=[7.967 0.12 0.12],kvas=[35.000000000 35.000000000 35.000000000],Taps=[1,1.000000000,1.000000000],%loadloss=1.293000000,%noloadloss=0.342857000
new transformer.454411 Phases=3,Windings=2,Buses=[BMT121197535.1.2.3 BBT2032449.1.2.3.0],Conns=[delta wye],kvs=[13.8 0.22],kvas=[45.000000000 45.000000000],Taps=[1,1.000000000],%loadloss=1.522000000,%noloadloss=0.377777000
new transformer.607417 Phases=1,Windings=3,Buses=[BMT135223904.2 BBT3098311.1.0 BBT3098311.0.2],Conns=[wye wye wye],kvs=[7.967 0.12 0.12],kvas=[5.000000000 5.000000000 5.000000000],Taps=[1,1.000000000,1.000000000],%loadloss=1.900000000,%noloadloss=0.600000000
new transformer.719662 Phases=3,Windings=2,Buses=[BMT121198249.1.2.3 BBT3983083.1.2.3.0],Conns=[delta wye],kvs=[13.8 0.22],kvas=[45.000000000 45.000000000],Taps=[1,1.000000000],%loadloss=1.522000000,%noloadloss=0.377777000
new transformer.802745 Phases=1,Windings=3,Buses=[BMT134955909.2 BBT4731992.1.0 BBT4731992.0.2],Conns=[wye wye wye],kvs=[7.967 0.12 0.12],kvas=[5.000000000 5.000000000 5.000000000],Taps=[1,1.000000000,1.000000000],%loadloss=1.900000000,%noloadloss=0.600000000
