CemigDFeeders/COJ08/COJ08SegmentosBT.dss
new line.1562392 bus1=BBT1692228.1.2.0,bus2=BBT1692235.1.2.0,Phases=2,Linecode=BT304_BT304_7_2_1,Length=0.000510000,Units=km
new line.1562399 bus1=BBT1692256.1.2.0,bus2=BBT1692263.1.2.0,Phases=2,Linecode=BT304_BT304_7_2_1,Length=0.000510000,Units=km
new line.1562469 bus1=BBT1692333.1.2.0,bus2=BBT1692340.1.2.0,Phases=2,Linecode=BT308_BT308_7_2_1,Length=0.000510000,Units=km
new line.1763572 bus1=BBT1895032.1.2.0,bus2=BBT1895025.1.2.0,Phases=2,Linecode=BT108_BT107_7_2_1,Length=0.033250000,Units=km
new line.1763579 bus1=BBT1895039.1.2.0,bus2=BBT1895032.1.2.0,Phases=2,Linecode=BT108_BT107_7_2_1,Length=0.034190000,Units=km
new line.1763586 bus1=BBT1895018.1.2.0,bus2=BBT2711512.1.2.0,Phases=2,Linecode=BT521_BT521_7_2_1,Length=0.000510000,Units=km
new line.1763593 bus1=BBT1895060.1.2.0,bus2=BBT1895039.1.2.0,Phases=2,Linecode=BT108_BT107_7_2_1,Length=0.037170000,Units=km
new line.1763600 bus1=BBT1895046.1.2.0,bus2=BBT1895053.1.2.0,Phases=2,Linecode=BT108_BT107_7_2_1,Length=0.030090000,Units=km
new line.1763607 bus1=BBT1895060.1.2.0,bus2=BBT1895046.1.2.0,Phases=2,Linecode=BT108_BT107_7_2_1,Length=0.031400000,Units=km
new line.1763614 bus1=BBT1895060.1.2.0,bus2=BBT1895067.1.2.0,Phases=2,Linecode=BT107_BT107_7_2_1,Length=0.036410000,Units=km
new line.1763621 bus1=BBT2711512.1.2.0,bus2=BBT1895060.1.2.0,Phases=2,Linecode=BT807_BT807_4_2_3,Length=0.034800000,Units=km
new line.1763628 bus1=BBT1895067.1.2.0,bus2=BBT1895074.1.2.0,Phases=2,Linecode=BT107_BT107_7_2_1,Length=0.028470000,Units=km
new line.1872786 bus1=BBT2023391.1.2.0,bus2=BBT148489192.1.2.0,Phases=2,Linecode=BT108_BT108_7_2_1,Length=0.028660000,Units=km
new line.1872793 bus1=BBT2023328.1.2.0,bus2=BBT2023391.1.2.0,Phases=2,Linecode=BT521_BT521_7_2_1,Length=0.000510000,Units=km
new line.1872828 bus1=BBT2023426.1.2.0,bus2=BBT2023454.1.2.0,Phases=2,Linecode=BT106_BT106_7_2_1,Length=0.029420000,Units=km
new line.1872835 bus1=BBT2023440.1.2.3.0,bus2=BBT2023433.1.2.3.0,Phases=3,Linecode=BT108_BT107_7_3_1,Length=0.030090000,Units=km
new line.1872842 bus1=BBT2023447.1.2.3.0,bus2=BBT2023440.1.2.3.0,Phases=3,Linecode=BT108_BT107_7_3_1,Length=0.035010000,Units=km
new line.1872849 bus1=BBT2023419.1.2.3.0,bus2=BBT2023461.1.2.3.0,Phases=3,Linecode=BT521_BT521_7_3_1,Length=0.000510000,Units=km
new line.1872856 bus1=BBT2023461.1.2.3.0,bus2=BBT2023475.1.2.3.0,Phases=3,Linecode=BT108_BT107_7_3_1,Length=0.038030000,Units=km
new line.1872863 bus1=BBT2023461.1.2.3.0,bus2=BBT2023517.1.2.3.0,Phases=3,Linecode=BT108_BT107_7_3_1,Length=0.029170000,Units=km
new line.1872870 bus1=BBT2023475.1.2.3.0,bus2=BBT2023447.1.2.3.0,Phases=3,Linecode=BT108_BT107_7_3_1,Length=0.036010000,Units=km
new line.1872877 bus1=BBT2023475.1.2.3.0,bus2=BBT2023468.1.2.3.0,Phases=3,Linecode=BT107_BT107_7_3_1,Length=0.036070000,Units=km
new line.1872884 bus1=BBT2023475.1.2.3.0,bus2=BBT2023510.1.2.3.0,Phases=3,Linecode=BT107_BT106_7_3_1,Length=0.036030000,Units=km
new line.1872891 bus1=BBT2023496.1.2.3.0,bus2=BBT2023482.1.2.3.0,Phases=3,Linecode=BT107_BT107_7_3_1,Length=0.033030000,Units=km
new line.1872898 bus1=BBT2023496.1.2.3.0,bus2=BBT2023489.1.2.3.0,Phases=3,Linecode=BT107_BT107_7_3_1,Length=0.029080000,Units=km
new line.1872905 bus1=BBT2023503.1.2.3.0,bus2=BBT2023426.1.2.3.0,Phases=3,Linecode=BT107_BT107_7_3_1,Length=0.039030000,Units=km
new line.1872912 bus1=BBT2023510.1.2.3.0,bus2=BBT2023503.1.2.3.0,Phases=3,Linecode=BT107_BT106_7_3_1,Length=0.041790000,Units=km
new line.1872919 bus1=BBT2023517.1.2.3.0,bus2=BBT2023496.1.2.3.0,Phases=3,Linecode=BT108_BT107_7_3_1,Length=0.025330000,Units=km
new line.1872933 bus1=BBT2023545.1.2.3.0,bus2=BBT2023559.1.2.3.0,Phases=3,Linecode=BT108_BT107_7_3_1,Length=0.042600000,Units=km
new line.1872940 bus1=BBT2023545.1.2.3.0,bus2=BBT2023573.1.2.3.0,Phases=3,Linecode=BT107_BT107_7_3_1,Length=0.034490000,Units=km
new line.1872947 bus1=BBT2023552.1.2.3.0,bus2=BBT2023545.1.2.3.0,Phases=3,Linecode=BT108_BT107_7_3_1,Length=0.035710000,Units=km
new line.1872954 bus1=BBT2023538.1.2.3.0,bus2=BBT2023552.1.2.3.0,Phases=3,Linecode=BT508_BT508_7_3_1,Length=0.000510000,Units=km
new line.1872961 bus1=BBT2023552.1.2.3.0,bus2=BBT2023664.1.2.3.0,Phases=3,Linecode=BT108_BT107_7_3_1,Length=0.038480000,Units=km
new line.1872968 bus1=BBT2023559.1.2.3.0,bus2=BBT2023566.1.2.3.0,Phases=3,Linecode=BT108_BT107_7_3_1,Length=0.029440000,Units=km
new line.1872975 bus1=BBT2023573.1.2.3.0,bus2=BBT2023594.1.2.3.0,Phases=3,Linecode=BT107_BT107_7_3_1,Length=0.036300000,Units=km
new line.1872982 bus1=BBT2308193.1.2.0,bus2=BBT2308242.1.2.0,Phases=2,Linecode=BT811_BT811_4_2_3,Length=0.013630000,Units=km
new line.1872989 bus1=BBT2023587.1.2.3.0,bus2=BBT2308193.1.2.3.0,Phases=3,Linecode=BT107_BT107_7_3_1,Length=0.029420000,Units=km
new line.1872996 bus1=BBT2023587.1.2.3.0,bus2=BBT2023636.1.2.3.0,Phases=3,Linecode=BT107_BT107_7_3_1,Length=0.029600000,Units=km
new line.1873003 bus1=BBT2023587.1.2.3.0,bus2=BBT2023650.1.2.3.0,Phases=3,Linecode=BT107_BT107_7_3_1,Length=0.005390000,Units=km
new line.1873010 bus1=BBT2023594.1.2.3.0,bus2=BBT2023587.1.2.3.0,Phases=3,Linecode=BT107_BT107_7_3_1,Length=0.004480000,Units=km
new line.1873017 bus1=BBT2023601.1.2.3.0,bus2=BBT2023580.1.2.3.0,Phases=3,Linecode=BT107_BT107_7_3_1,Length=0.036410000,Units=km
new line.1873024 bus1=BBT2023608.1.2.3.0,bus2=BBT2023615.1.2.3.0,Phases=3,Linecode=BT810_BT810_4_3_4,Length=0.039070000,Units=km
new line.1873038 bus1=BBT2023622.1.2.3.0,bus2=BBT2023601.1.2.3.0,Phases=3,Linecode=BT107_BT107_7_3_1,Length=0.008560000,Units=km
new line.1873045 bus1=BBT2023622.1.2.3.0,bus2=BBT2023629.1.2.3.0,Phases=3,Linecode=BT107_BT107_7_3_1,Length=0.042120000,Units=km
new line.1873052 bus1=BBT2023650.1.2.3.0,bus2=BBT2023643.1.2.3.0,Phases=3,Linecode=BT107_BT107_7_3_1,Length=0.026580000,Units=km
new line.1873059 bus1=BBT2023657.1.2.3.0,bus2=BBT2023622.1.2.3.0,Phases=3,Linecode=BT107_BT107_7_3_1,Length=0.024640000,Units=km
new line.1873066 bus1=BBT2023664.1.2.3.0,bus2=BBT2023608.1.2.3.0,Phases=3,Linecode=BT810_BT810_4_3_4,Length=0.041020000,Units=km
new line.18730682 bus1=BBT149377992.1.2.0,bus2=BBT149377993.1.2.0,Phases=2,Linecode=BT521_BT521_7_2_1,Length=0.000510000,Units=km
new line.1873073 bus1=BBT2023664.1.2.3.0,bus2=BBT2023657.1.2.3.0,Phases=3,Linecode=BT107_BT107_7_3_1,Length=0.031840000,Units=km
new line.1873080 bus1=BBT2023671.1.2.3.0,bus2=BBT2023678.1.2.3.0,Phases=3,Linecode=BT514_BT514_7_3_1,Length=0.000510000,Units=km
new line.1873087 bus1=BBT2024833.1.2.3.0,bus2=BBT2024840.1.2.3.0,Phases=3,Linecode=BT107_BT107_7_3_1,Length=0.037660000,Units=km
new line.1873108 bus1=BBT2023706.1.2.3.0,bus2=BBT2023804.1.2.3.0,Phases=3,Linecode=BT107_BT107_7_3_1,Length=0.033070000,Units=km
new line.1873115 bus1=BBT2023713.1.2.3.0,bus2=BBT2023706.1.2.3.0,Phases=3,Linecode=BT803_BT803_4_3_4,Length=0.025030000,Units=km
new line.1873122 bus1=BBT2023720.1.2.3.0,bus2=BBT2023797.1.2.3.0,Phases=3,Linecode=BT107_BT107_7_3_1,Length=0.027080000,Units=km
new line.1873129 bus1=BBT2023727.1.2.3.0,bus2=BBT2023713.1.2.3.0,Phases=3,Linecode=BT803_BT803_4_3_4,Length=0.031270000,Units=km
new line.1873136 bus1=BBT2023699.1.2.3.0,bus2=BBT2023734.1.2.3.0,Phases=3,Linecode=BT521_BT521_7_3_1,Length=0.000510000,Units=km
new line.1873143 bus1=BBT2023734.1.2.3.0,bus2=BBT2023741.1.2.3.0,Phases=3,Linecode=BT108_BT107_7_3_1,Length=0.028290000,Units=km
new line.1873150 bus1=BBT2023734.1.2.3.0,bus2=BBT2023748.1.2.3.0,Phases=3,Linecode=BT108_BT107_7_3_1,Length=0.025030000,Units=km
new line.10044481 bus1=BBT146341283.1.2.3.0,bus2=BBT2025848.1.2.3.0,Phases=3,Linecode=BT805_BT805_4_3_4,Length=0.013420000,Units=km
new line.10044523 bus1=BBT2025848.1.2.3.0,bus2=BBT146342214.1.2.3.0,Phases=3,Linecode=BT803_BT803_4_3_4,Length=0.028800000,Units=km
new line.10044530 bus1=BBT146342214.1.2.3.0,bus2=BBT146342221.1.2.3.0,Phases=3,Linecode=BT803_BT803_4_3_4,Length=0.033000000,Units=km
new line.10063556 bus1=BBT146965137.1.2.0,bus2=BBT146965144.1.2.0,Phases=2,Linecode=BT518_BT518_7_2_1,Length=0.000510000,Units=km
new line.10063577 bus1=BBT146965144.1.2.0,bus2=BBT146965382.1.2.0,Phases=2,Linecode=BT803_BT803_4_2_4,Length=0.036180000,Units=km
new line.10063584 bus1=BBT146965382.1.2.0,bus2=BBT146965389.1.2.0,Phases=2,Linecode=BT803_BT803_4_2_4,Length=0.035940000,Units=km
new line.10063591 bus1=BBT146965144.1.2.0,bus2=BBT146965396.1.2.0,Phases=2,Linecode=BT803_BT803_4_2_4,Length=0.035940000,Units=km
new line.10063598 bus1=BBT146965396.1.2.0,bus2=BBT146965403.1.2.0,Phases=2,Linecode=BT803_BT803_4_2_4,Length=0.036730000,Units=km
new line.10063605 bus1=BBT146965403.1.2.0,bus2=BBT146965410.1.2.0,Phases=2,Linecode=BT803_BT803_4_2_4,Length=0.036730000,Units=km
new line.1876027 bus1=BBT2026625.1.2.3.0,bus2=BBT2026632.1.2.3.0,Phases=3,Linecode=BT514_BT514_7_3_1,Length=0.000510000,Units=km
new line.1876041 bus1=BBT2026653.1.2.3.0,bus2=BBT2026660.1.2.3.0,Phases=3,Linecode=BT521_BT521_7_3_1,Length=0.000510000,Units=km
new line.1876048 bus1=BBT2026660.1.2.3.0,bus2=BBT2884111.1.2.3.0,Phases=3,Linecode=BT810_BT810_4_3_4,Length=0.018980000,Units=km
new line.1876062 bus1=BBT2026737.1.2.3.0,bus2=BBT2026744.1.2.3.0,Phases=3,Linecode=BT108_BT107_7_3_1,Length=0.039070000,Units=km
new line.1876069 bus1=BBT2026737.1.2.3.0,bus2=BBT2026793.1.2.3.0,Phases=3,Linecode=BT107_BT107_7_3_1,Length=0.023010000,Units=km
new line.1876076 bus1=BBT2026758.1.2.3.0,bus2=BBT2026765.1.2.3.0,Phases=3,Linecode=BT107_BT107_7_3_1,Length=0.024750000,Units=km
new line.1876083 bus1=BBT2026765.1.2.3.0,bus2=BBT2026772.1.2.3.0,Phases=3,Linecode=BT803_BT803_4_3_4,Length=0.039860000,Units=km
new line.1876090 bus1=BBT2026765.1.2.3.0,bus2=BBT2026779.1.2.3.0,Phases=3,Linecode=BT107_BT107_7_3_1,Length=0.029780000,Units=km
new line.1876097 bus1=BBT2026779.1.2.3.0,bus2=BBT2026786.1.2.3.0,Phases=3,Linecode=BT107_BT107_7_3_1,Length=0.032650000,Units=km
new line.1876104 bus1=BBT2026821.1.2.3.0,bus2=BBT2026835.1.2.3.0,Phases=3,Linecode=BT107_BT107_7_3_1,Length=0.024200000,Units=km
new line.1876111 bus1=BBT2031469.1.2.3.0,bus2=BBT2031476.1.2.3.0,Phases=3,Linecode=BT107_BT107_7_3_1,Length=0.028040000,Units=km
new line.1876118 bus1=BBT2026842.1.2.3.0,bus2=BBT2026821.1.2.3.0,Phases=3,Linecode=BT107_BT107_7_3_1,Length=0.029170000,Units=km
new line.1876125 bus1=BBT2026849.1.2.3.0,bus2=BBT2026842.1.2.3.0,Phases=3,Linecode=BT107_BT107_7_3_1,Length=0.037370000,Units=km
new line.1876132 bus1=BBT2026856.1.2.3.0,bus2=BBT2026737.1.2.3.0,Phases=3,Linecode=BT108_BT107_7_3_1,Length=0.035720000,Units=km
new line.1876139 bus1=BBT2026681.1.2.3.0,bus2=BBT2026856.1.2.3.0,Phases=3,Linecode=BT521_BT521_7_3_1,Length=0.000510000,Units=km
new line.1876146 bus1=BBT2026856.1.2.3.0,bus2=BBT2026863.1.2.3.0,Phases=3,Linecode=BT108_BT107_7_3_1,Length=0.039670000,Units=km
new line.1876153 bus1=BBT2026863.1.2.3.0,bus2=BBT2026849.1.2.3.0,Phases=3,Linecode=BT108_BT107_7_3_1,Length=0.039360000,Units=km
new line.1876160 bus1=BBT2026863.1.2.3.0,bus2=BBT2026870.1.2.3.0,Phases=3,Linecode=BT803_BT803_4_3_4,Length=0.030630000,Units=km
new line.1876167 bus1=BBT2026863.1.2.3.0,bus2=BBT2310125.1.2.3.0,Phases=3,Linecode=BT503_BT503_5_3_1,Length=0.004000000,Units=km
new line.1876174 bus1=BBT2026870.1.2.3.0,bus2=BBT2026828.1.2.3.0,Phases=3,Linecode=BT803_BT803_4_3_4,Length=0.028670000,Units=km
new line.1876188 bus1=BBT3983083.1.2.3.0,bus2=BBT3983090.1.2.3.0,Phases=3,Linecode=BT509_BT509_7_3_1,Length=0.000510000,Units=km
new line.1876223 bus1=BBT2026919.1.2.3.0,bus2=BBT2026933.1.2.3.0,Phases=3,Linecode=BT107_BT107_7_3_1,Length=0.029470000,Units=km
new line.1876230 bus1=BBT2026926.1.2.3.0,bus2=BBT2026912.1.2.3.0,Phases=3,Linecode=BT107_BT107_7_3_1,Length=0.031970000,Units=km
new line.1876237 bus1=BBT2026940.1.2.3.0,bus2=BBT2026905.1.2.3.0,Phases=3,Linecode=BT107_BT107_7_3_1,Length=0.033850000,Units=km
new line.1876244 bus1=BBT2026940.1.2.3.0,bus2=BBT2026919.1.2.3.0,Phases=3,Linecode=BT107_BT107_7_3_1,Length=0.033850000,Units=km
new line.1876258 bus1=BBT2026947.1.2.3.0,bus2=BBT2026940.1.2.3.0,Phases=3,Linecode=BT108_BT107_7_3_1,Length=0.026840000,Units=km
new line.1876265 bus1=BBT2026898.1.2.3.0,bus2=BBT2026947.1.2.3.0,Phases=3,Linecode=BT521_BT521_7_3_1,Length=0.000510000,Units=km
new line.1876272 bus1=BBT2026947.1.2.3.0,bus2=BBT2026954.1.2.3.0,Phases=3,Linecode=BT108_BT107_7_3_1,Length=0.023780000,Units=km
new line.1876279 bus1=BBT2026954.1.2.3.0,bus2=BBT2026961.1.2.3.0,Phases=3,Linecode=BT108_BT107_7_3_1,Length=0.020130000,Units=km
new line.18762813 bus1=BBT150359937.1.2.0,bus2=BBT3569243.1.2.0,Phases=2,Linecode=BT508_BT508_7_2_1,Length=0.000510000,Units=km
new line.18762836 bus1=BBT2035333.1.2.0,bus2=BBT150360622.1.2.0,Phases=2,Linecode=BT803_BT803_4_2_4,Length=0.037030000,Units=km
new line.1876286 bus1=BBT2026961.1.2.3.0,bus2=BBT2026926.1.2.3.0,Phases=3,Linecode=BT107_BT107_7_3_1,Length=0.025310000,Units=km
new line.1876328 bus1=BBT2027024.1.2.3.0,bus2=BBT2027031.1.2.3.0,Phases=3,Linecode=BT513_BT513_7_3_1,Length=0.000510000,Units=km
new line.1876335 bus1=BBT2027031.1.2.3.0,bus2=BBT2027108.1.2.3.0,Phases=3,Linecode=BT108_BT107_7_3_1,Length=0.017470000,Units=km
new line.1876342 bus1=BBT2027031.1.2.3.0,bus2=BBT2027150.1.2.3.0,Phases=3,Linecode=BT108_BT107_7_3_1,Length=0.033560000,Units=km
new line.1876349 bus1=BBT2027038.1.2.3.0,bus2=BBT2027101.1.2.3.0,Phases=3,Linecode=BT108_BT107_7_3_1,Length=0.027910000,Units=km
new line.1876356 bus1=BBT2027045.1.2.3.0,bus2=BBT2027115.1.2.3.0,Phases=3,Linecode=BT108_BT107_7_3_1,Length=0.038350000,Units=km
new line.18763621 bus1=BBT150378631.1.2.0,bus2=BBT150378632.1.2.0,Phases=2,Linecode=BT518_BT518_7_2_1,Length=0.000510000,Units=km
new line.18763626 bus1=BBT150378632.1.2.0,bus2=BBT150378653.1.2.0,Phases=2,Linecode=BT803_BT803_4_2_4,Length=0.035520000,Units=km
new line.18763627 bus1=BBT150378653.1.2.0,bus2=BBT150378654.1.2.0,Phases=2,Linecode=BT803_BT803_4_2_4,Length=0.034420000,Units=km
new line.18763628 bus1=BBT150378632.1.2.0,bus2=BBT150378657.1.2.0,Phases=2,Linecode=BT803_BT803_4_2_4,Length=0.031630000,Units=km
new line.18763629 bus1=BBT150378657.1.2.0,bus2=BBT150378670.1.2.0,Phases=2,Linecode=BT803_BT803_4_2_4,Length=0.034680000,Units=km
new line.1876363 bus1=BBT2027045.1.2.3.0,bus2=BBT2027038.1.2.3.0,Phases=3,Linecode=BT108_BT107_7_3_1,Length=0.033900000,Units=km
new line.1876370 bus1=BBT2027045.1.2.3.0,bus2=BBT2027094.1.2.3.0,Phases=3,Linecode=BT107_BT107_7_3_1,Length=0.035860000,Units=km
new line.1876377 bus1=BBT2027052.1.2.3.0,bus2=BBT3221490.1.2.3.0,Phases=3,Linecode=BT803_BT803_4_3_4,Length=0.045210000,Units=km
new line.1876384 bus1=BBT2027059.1.2.3.0,bus2=BBT2027066.1.2.3.0,Phases=3,Linecode=BT107_BT107_7_3_1,Length=0.034600000,Units=km
new line.1876391 bus1=BBT2027052.1.2.3.0,bus2=BBT148649625.1.2.3.0,Phases=3,Linecode=BT803_BT803_4_3_4,Length=0.033120000,Units=km
new line.1876398 bus1=BBT148649625.1.2.3.0,bus2=BBT2027059.1.2.3.0,Phases=3,Linecode=BT107_BT107_7_3_1,Length=0.033590000,Units=km
new line.1873913 bus1=BBT2024518.1.2.3.0,bus2=BBT2024497.1.2.3.0,Phases=3,Linecode=BT108_BT107_7_3_1,Length=0.040040000,Units=km
new line.1873934 bus1=BBT2024546.1.2.3.0,bus2=BBT2024553.1.2.3.0,Phases=3,Linecode=BT508_BT508_7_3_1,Length=0.000510000,Units=km
new line.1873941 bus1=BBT2024553.1.2.3.0,bus2=BBT2024560.1.2.3.0,Phases=3,Linecode=BT108_BT107_7_3_1,Length=0.037500000,Units=km
new line.1873948 bus1=BBT2024553.1.2.3.0,bus2=BBT2024595.1.2.3.0,Phases=3,Linecode=BT108_BT107_7_3_1,Length=0.035370000,Units=km
new line.1873955 bus1=BBT2024560.1.2.3.0,bus2=BBT2024567.1.2.3.0,Phases=3,Linecode=BT108_BT107_7_3_1,Length=0.041790000,Units=km
new line.1873962 bus1=BBT2024567.1.2.3.0,bus2=BBT2024574.1.2.3.0,Phases=3,Linecode=BT108_BT107_7_3_1,Length=0.037140000,Units=km
new line.1873976 bus1=BBT2024581.1.2.3.0,bus2=BBT2024630.1.2.3.0,Phases=3,Linecode=BT107_BT107_7_3_1,Length=0.029080000,Units=km
new line.1873983 bus1=BBT2024588.1.2.3.0,bus2=BBT2024581.1.2.3.0,Phases=3,Linecode=BT107_BT107_7_3_1,Length=0.033150000,Units=km
new line.1873990 bus1=BBT2024595.1.2.3.0,bus2=BBT2024602.1.2.3.0,Phases=3,Linecode=BT803_BT803_4_3_4,Length=0.033390000,Units=km
new line.1873997 bus1=BBT2024602.1.2.3.0,bus2=BBT2024609.1.2.3.0,Phases=3,Linecode=BT803_BT803_4_3_4,Length=0.027080000,Units=km
new line.1874004 bus1=BBT2024602.1.2.3.0,bus2=BBT2024623.1.2.3.0,Phases=3,Linecode=BT803_BT803_4_3_4,Length=0.042590000,Units=km
new line.1874011 bus1=BBT2024609.1.2.3.0,bus2=BBT2024616.1.2.3.0,Phases=3,Linecode=BT107_BT107_7_3_1,Length=0.020400000,Units=km
new line.1874018 bus1=BBT2024616.1.2.3.0,bus2=BBT2024588.1.2.3.0,Phases=3,Linecode=BT107_BT107_7_3_1,Length=0.045120000,Units=km
new line.1874025 bus1=BBT2026744.1.2.3.0,bus2=BBT2026751.1.2.3.0,Phases=3,Linecode=BT107_BT107_7_3_1,Length=0.026320000,Units=km
new line.1874032 bus1=BBT2026744.1.2.3.0,bus2=BBT2026758.1.2.3.0,Phases=3,Linecode=BT107_BT107_7_3_1,Length=0.027310000,Units=km
new line.1874046 bus1=BBT2024658.1.2.3.0,bus2=BBT2024686.1.2.3.0,Phases=3,Linecode=BT108_BT107_7_3_1,Length=0.035240000,Units=km
new line.1874060 bus1=BBT2024665.1.2.3.0,bus2=BBT2024672.1.2.3.0,Phases=3,Linecode=BT108_BT107_7_3_1,Length=0.037500000,Units=km
...