CemigDFeeders/COJ08/COJ08Ramais.dss
new line.RML10053601 bus1=BBT2023503.3.0,bus2=RML210053601.3.0,Phases=1,Linecode=CABBTG02_4_1,Length=0.017000000,Units=km
new line.RML10053605 bus1=BBT2026310.3.0,bus2=RML210053605.3.0,Phases=1,Linecode=CABBTG02_4_1,Length=0.017000000,Units=km
new line.RML10053613 bus1=BBT2023748.3.0,bus2=RML210053613.3.0,Phases=1,Linecode=CABBTG02_4_1,Length=0.017000000,Units=km
new line.RML10053616 bus1=BBT137361704.2.0,bus2=RML210053616.2.0,Phases=1,Linecode=CABBTG02_4_1,Length=0.017000000,Units=km
new line.RML10053621 bus1=BBT2024280.1.0,bus2=RML210053621.1.0,Phases=1,Linecode=CABBTG01_4_1,Length=0.017000000,Units=km
new line.RML10053623 bus1=BBT2030762.3.0,bus2=RML210053623.3.0,Phases=1,Linecode=CABBTG01_4_1,Length=0.017000000,Units=km
new line.RML10053626 bus1=BBT2035298.1.0,bus2=RML210053626.1.0,Phases=1,Linecode=CABBTG01_4_1,Length=0.017000000,Units=km
new line.RML10053628 bus1=BBT2028039.1.2.3.0,bus2=RML210053628.1.2.3.0,Phases=3,Linecode=CABBTG11_4_3,Length=0.017000000,Units=km
new line.RML10053631 bus1=BBT3221364.1.0,bus2=RML210053631.1.0,Phases=1,Linecode=CABBTG01_4_1,Length=0.017000000,Units=km
new line.RML10053634 bus1=BBT2031693.2.0,bus2=RML210053634.2.0,Phases=1,Linecode=CABBTG01_4_1,Length=0.017000000,Units=km
new line.RML10053635 bus1=BBT2031574.3.0,bus2=RML210053635.3.0,Phases=1,Linecode=CABBTG01_4_1,Length=0.017000000,Units=km
new line.RML10053697 bus1=BBT2033807.1.3.0,bus2=RML210053697.1.3.0,Phases=2,Linecode=CABBTG05_4_2,Length=0.017000000,Units=km
new line.RML10053698 bus1=BBT3221483.1.0,bus2=RML210053698.1.0,Phases=1,Linecode=CABBTG02_4_1,Length=0.017000000,Units=km
new line.RML10103873 bus1=BBT2023335.1.0,bus2=RML210103873.1.0,Phases=1,Linecode=CABBTG01_4_1,Length=0.017000000,Units=km
new line.RML10169654 bus1=BBT2025988.1.0,bus2=RML210169654.1.0,Phases=1,Linecode=CABBTG01_4_1,Length=0.017000000,Units=km
new line.RML10169677 bus1=BBT12514473.1.2.0,bus2=RML210169677.1.2.0,Phases=2,Linecode=CABBTG04_4_2,Length=0.017000000,Units=km
new line.RML10217220 bus1=BBT5860574.2.0,bus2=RML210217220.2.0,Phases=1,Linecode=CABBTG02_4_1,Length=0.017000000,Units=km
new line.RML10219442 bus1=BBT2035662.2.0,bus2=RML210219442.2.0,Phases=1,Linecode=CABBTG01_4_1,Length=0.017000000,Units=km
new line.RML10219487 bus1=BBT2030804.2.0,bus2=RML210219487.2.0,Phases=1,Linecode=CABBTG02_4_1,Length=0.017000000,Units=km
new line.RML10219489 bus1=BBT2023818.2.3.0,bus2=RML210219489.2.3.0,Phases=2,Linecode=CABBTG05_4_2,Length=0.017000000,Units=km
new line.RML10219499 bus1=BBT2029320.2.3.0,bus2=RML210219499.2.3.0,Phases=2,Linecode=CABBTG05_4_2,Length=0.017000000,Units=km
new line.RML10219505 bus1=BBT2027878.3.0,bus2=RML210219505.3.0,Phases=1,Linecode=CABBTG01_4_1,Length=0.017000000,Units=km
new line.RML10219508 bus1=BBT2034794.1.0,bus2=RML210219508.1.0,Phases=1,Linecode=CABBTG02_4_1,Length=0.017000000,Units=km
new line.RML10222721 bus1=BBT2035592.1.0,bus2=RML210222721.1.0,Phases=1,Linecode=CABBTG02_4_1,Length=0.017000000,Units=km
new line.RML10327891 bus1=BBT2027381.1.2.3.0,bus2=RML210327891.1.2.3.0,Phases=3,Linecode=CABBTG06_4_3,Length=0.017000000,Units=km
new line.RML10328071 bus1=BBT2409595.2.3.0,bus2=RML210328071.2.3.0,Phases=2,Linecode=CABBTG05_4_2,Length=0.017000000,Units=km
new line.RML10328077 bus1=BBT12658778.1.0,bus2=RML210328077.1.0,Phases=1,Linecode=CABBTG02_4_1,Length=0.017000000,Units=km
new line.RML10330073 bus1=BBT2031385.3.0,bus2=RML210330073.3.0,Phases=1,Linecode=CABBTG02_4_1,Length=0.017000000,Units=km
new line.RML10330075 bus1=BBT2023356.1.0,bus2=RML210330075.1.0,Phases=1,Linecode=CABBTG02_4_1,Length=0.017000000,Units=km
new line.RML10330076 bus1=BBT148641413.1.0,bus2=RML210330076.1.0,Phases=1,Linecode=CABBTG02_4_1,Length=0.017000000,Units=km
new line.RML10330077 bus1=BBT2409476.2.0,bus2=RML210330077.2.0,Phases=1,Linecode=CABBTG02_4_1,Length=0.017000000,Units=km
new line.RML10330078 bus1=BBT2028130.1.2.3.0,bus2=RML210330078.1.2.3.0,Phases=3,Linecode=CABBTG06_4_3,Length=0.017000000,Units=km
new line.RML10330079 bus1=BBT143630428.2.0,bus2=RML210330079.2.0,Phases=1,Linecode=CABBTG02_4_1,Length=0.017000000,Units=km
new line.RML10330080 bus1=BBT2026072.2.0,bus2=RML210330080.2.0,Phases=1,Linecode=CABBTG02_4_1,Length=0.017000000,Units=km
new line.RML10330081 bus1=BBT2035641.1.0,bus2=RML210330081.1.0,Phases=1,Linecode=CABBTG02_4_1,Length=0.017000000,Units=km
new line.RML10330084 bus1=BBT6360129.2.0,bus2=RML210330084.2.0,Phases=1,Linecode=CABBTG02_4_1,Length=0.017000000,Units=km
new line.RML10330085 bus1=BBT6360129.1.0,bus2=RML210330085.1.0,Phases=1,Linecode=CABBTG02_4_1,Length=0.017000000,Units=km
new line.RML10330086 bus1=BBT2023447.1.0,bus2=RML210330086.1.0,Phases=1,Linecode=CABBTG02_4_1,Length=0.017000000,Units=km
new line.RML10158267 bus1=BBT12660108.1.0,bus2=RML210158267.1.0,Phases=1,Linecode=CABBTG02_4_1,Length=0.017000000,Units=km
new line.RML10212938 bus1=BBT3221455.1.0,bus2=RML210212938.1.0,Phases=1,Linecode=CABBTG02_4_1,Length=0.017000000,Units=km
...